Tyrosine dipeptide
 OpenBabel04140706513D

 33 33  0  0  0  0  0  0  0  0999 V2000
   -1.0280    3.4180   -0.5060 C   0  0  0  0  0
   -1.2280    1.9870   -0.0810 C   0  0  0  0  0
   -1.6990    1.7370    1.0090 O   0  0  0  0  0
   -0.8830    0.9830   -0.9120 N   0  0  0  0  0
   -1.0770   -0.4090   -0.4980 C   0  0  0  0  0
   -0.7430   -1.0750   -1.2940 H   0  0  0  0  0
   -0.2650   -0.6830    0.7690 C   0  0  0  0  0
    1.2050   -0.5600    0.4610 C   0  0  0  0  0
    1.8390    0.6610    0.5960 C   0  0  0  0  0
    3.1860    0.7760    0.3130 C   0  0  0  0  0
    3.9030   -0.3350   -0.1060 C   0  0  0  0  0
    5.2290   -0.2240   -0.3850 O   0  0  0  0  0
    3.2650   -1.5590   -0.2410 C   0  0  0  0  0
    1.9180   -1.6700    0.0480 C   0  0  0  0  0
   -2.5380   -0.6520   -0.2210 C   0  0  0  0  0
   -3.2770    0.2840    0.0020 O   0  0  0  0  0
   -3.0250   -1.9090   -0.2210 N   0  0  0  0  0
   -4.4450   -2.1440    0.0480 C   0  0  0  0  0
   -0.0350    3.7520   -0.2030 H   0  0  0  0  0
   -1.1210    3.4920   -1.5900 H   0  0  0  0  0
   -1.7830    4.0470   -0.0330 H   0  0  0  0  0
   -0.5060    1.1820   -1.7830 H   0  0  0  0  0
   -0.5370    0.0400    1.5380 H   0  0  0  0  0
   -0.4780   -1.6900    1.1270 H   0  0  0  0  0
    1.2800    1.5260    0.9230 H   0  0  0  0  0
    3.6810    1.7310    0.4190 H   0  0  0  0  0
    5.7030   -0.4040    0.4390 H   0  0  0  0  0
    3.8210   -2.4250   -0.5680 H   0  0  0  0  0
    1.4210   -2.6230   -0.0560 H   0  0  0  0  0
   -2.4340   -2.6570   -0.4000 H   0  0  0  0  0
   -4.6510   -3.2140    0.0060 H   0  0  0  0  0
   -4.6950   -1.7660    1.0390 H   0  0  0  0  0
   -5.0480   -1.6290   -0.7000 H   0  0  0  0  0
  1  2  1  0  0  0
  1 19  1  0  0  0
  1 20  1  0  0  0
  1 21  1  0  0  0
  2  3  2  0  0  0
  2  4  1  0  0  0
  4  5  1  0  0  0
  4 22  1  0  0  0
  5  6  1  0  0  0
  5  7  1  0  0  0
  5 15  1  0  0  0
  7  8  1  0  0  0
  7 23  1  0  0  0
  7 24  1  0  0  0
  8 14  2  0  0  0
  8  9  1  0  0  0
  9 10  2  0  0  0
  9 25  1  0  0  0
 10 11  1  0  0  0
 10 26  1  0  0  0
 11 12  1  0  0  0
 11 13  2  0  0  0
 12 27  1  0  0  0
 13 14  1  0  0  0
 13 28  1  0  0  0
 14 29  1  0  0  0
 15 16  2  0  0  0
 15 17  1  0  0  0
 17 18  1  0  0  0
 17 30  1  0  0  0
 18 31  1  0  0  0
 18 32  1  0  0  0
 18 33  1  0  0  0
M  END
