@<TRIPOS>MOLECULE
Water Box
6417 4278
SMALL
NO_CHARGES


@<TRIPOS>ATOM
     0 O0         8.8962    -8.3102    10.1729 Any
     1 H1         8.3765    -7.6884     9.6809 Any
     2 H2         9.7057    -8.3835     9.6848 Any
     3 O3        10.1003     0.0494    14.9904 Any
     4 H4        11.0105     0.3097    15.0417 Any
     5 H5         9.8980     0.0706    14.0644 Any
     6 O6         3.6664    16.6851    18.2973 Any
     7 H7         3.1329    17.4301    18.0538 Any
     8 H8         4.1310    16.4549    17.5036 Any
     9 O9        19.2475   -13.1241     9.3850 Any
    10 H10       18.5000   -12.6233     9.0860 Any
    11 H11       19.9988   -12.6605     9.0391 Any
    12 O12        5.2452    12.1073   -13.5587 Any
    13 H13        6.1687    11.9391   -13.4256 Any
    14 H14        5.0784    11.8300   -14.4499 Any
    15 O15       -4.4865    12.6209    10.9402 Any
    16 H16       -4.1690    12.1696    11.7111 Any
    17 H17       -4.7052    11.9278    10.3313 Any
    18 O18      -14.9961     3.5141    -8.8197 Any
    19 H19      -15.5246     4.3004    -8.8571 Any
    20 H20      -14.5179     3.5090    -9.6384 Any
    21 O21        3.7191    19.4054    14.5610 Any
    22 H22        3.4786    20.1658    14.0484 Any
    23 H23        3.5815    18.6711    13.9773 Any
    24 O24       13.4295     2.2868    13.4963 Any
    25 H25       13.3203     1.4362    13.9008 Any
    26 H26       13.5027     2.1023    12.5692 Any
    27 O27      -19.5938    19.1953    -0.1752 Any
    28 H28      -20.0623    18.8080     0.5525 Any
    29 H29      -18.8226    19.5831     0.2169 Any
    30 O30       11.4457     4.4724    -4.1000 Any
    31 H31       10.9057     4.5393    -4.8764 Any
    32 H32       12.2295     4.9620    -4.3118 Any
    33 O33      -14.2686    -3.6543    13.3694 Any
    34 H34      -14.9713    -3.0299    13.2453 Any
    35 H35      -13.9357    -3.4692    14.2376 Any
    36 O36       -1.2042    15.2579   -15.4253 Any
    37 H37       -0.2843    15.2739   -15.1963 Any
    38 H38       -1.6129    15.8546   -14.8123 Any
    39 O39        0.6613    -6.5957     9.5921 Any
    40 H40        0.4257    -7.0805     8.8122 Any
    41 H41        1.4342    -6.1057     9.3440 Any
    42 O42       14.5395   -13.0175    -0.0225 Any
    43 H43       13.5978   -13.0025     0.0864 Any
    44 H44       14.6757   -13.4319    -0.8644 Any
    45 O45      -13.2442    15.6454   -11.9745 Any
    46 H46      -13.7113    15.9797   -12.7288 Any
    47 H47      -13.7452    14.8888   -11.6998 Any
    48 O48        9.6759   -18.3461   -14.4916 Any
    49 H49        9.1092   -17.8518   -13.9142 Any
    50 H50        9.7471   -19.1988   -14.0833 Any
    51 O51       10.3095    -6.3719    -4.8092 Any
    52 H52        9.4451    -6.6799    -4.5705 Any
    53 H53       10.1527    -5.7076    -5.4672 Any
    54 O54      -12.2178    -5.0383    -9.7879 Any
    55 H55      -11.5270    -5.4417   -10.2967 Any
    56 H56      -12.9689    -5.0342   -10.3665 Any
    57 O57       12.9761     0.1172    15.0130 Any
    58 H58       13.2331    -0.7899    14.9129 Any
    59 H59       13.0709     0.2909    15.9403 Any
    60 O60       14.3185    14.8888    -9.9718 Any
    61 H61       14.3037    15.0091   -10.9121 Any
    62 H62       14.4829    13.9627    -9.8524 Any
    63 O63       -6.1618   -11.6584   -17.5815 Any
    64 H64       -5.2659   -11.7112   -17.2757 Any
    65 H65       -6.6845   -11.9187   -16.8346 Any
    66 O66        1.0615    18.3132    12.6301 Any
    67 H67        0.1634    18.5249    12.4121 Any
    68 H68        1.5813    18.8425    12.0397 Any
    69 O69        8.5412    14.3825     4.2460 Any
    70 H70        9.1928    14.3701     3.5574 Any
    71 H71        9.0122    14.1169     5.0248 Any
    72 O72       -6.8688    -4.4698   -19.8884 Any
    73 H73       -6.3841    -4.5860   -19.0819 Any
    74 H74       -7.3362    -5.2864   -20.0055 Any
    75 O75       11.2960   -13.5283     6.9152 Any
    76 H76       11.1382   -12.7730     7.4661 Any
    77 H77       10.6691   -14.1749     7.2117 Any
    78 O78       12.4422    -7.2377    -9.2199 Any
    79 H79       12.2251    -6.8702    -8.3734 Any
    80 H80       11.8880    -6.7713    -9.8316 Any
    81 O81       18.3559    -2.0117    11.4811 Any
    82 H82       18.2846    -1.2469    10.9252 Any
    83 H83       18.1379    -1.6972    12.3485 Any
    84 O84       -2.2225   -10.6112     9.0073 Any
    85 H85       -2.2242    -9.7702     9.4450 Any
    86 H86       -1.3479   -10.6923     8.6502 Any
    87 O87       13.4329     0.4039     8.5719 Any
    88 H88       12.9236     1.0261     9.0743 Any
    89 H89       14.2322     0.2930     9.0696 Any
    90 O90        7.6546    18.0101     9.3799 Any
    91 H91        8.5917    17.9127     9.2740 Any
    92 H92        7.3039    17.9075     8.5050 Any
    93 O93      -14.5978    -2.8259     1.2802 Any
    94 H94      -14.7690    -2.0261     1.7597 Any
    95 H95      -13.6535    -2.8594     1.2018 Any
    96 O96       -9.7416     1.0199     3.3441 Any
    97 H97      -10.4663     0.4133     3.2677 Any
    98 H98       -9.3199     0.7861     4.1604 Any
    99 O99      -13.2028   -13.6764    11.6879 Any
   100 H100     -12.2674   -13.6652    11.5332 Any
   101 H101     -13.5870   -13.5005    10.8392 Any
   102 O102      -0.6041   -13.2067   -14.7834 Any
   103 H103      -1.0548   -14.0399   -14.7447 Any
   104 H104      -0.4369   -12.9836   -13.8772 Any
   105 O105       3.0111   -14.9997    -0.5589 Any
   106 H106       2.5645   -14.1663    -0.4892 Any
   107 H107       3.5774   -14.9046    -1.3132 Any
   108 O108     -17.0723    -2.7963     6.9823 Any
   109 H109     -16.2183    -2.4024     6.8618 Any
   110 H110     -17.6526    -2.2775     6.4410 Any
   111 O111       0.4213     5.5993    18.4544 Any
   112 H112      -0.2912     5.7621    19.0583 Any
   113 H113       0.1270     5.9699    17.6328 Any
   114 O114      -4.7750     2.2634    -4.1365 Any
   115 H115      -4.3672     1.8818    -3.3703 Any
   116 H116      -4.4203     3.1414    -4.1831 Any
   117 O117     -14.6865    10.0138    -8.3696 Any
   118 H118     -14.4613     9.1199    -8.5914 Any
   119 H119     -14.9813    10.3951    -9.1860 Any
   120 O120      -2.8401   -13.0449   -12.1524 Any
   121 H121      -3.2656   -13.3322   -12.9494 Any
   122 H122      -3.2982   -13.5018   -11.4594 Any
   123 O123     -14.8095     7.7081    -3.1645 Any
   124 H124     -14.1583     7.0294    -3.0455 Any
   125 H125     -15.5117     7.2841    -3.6400 Any
   126 O126       1.6911   -13.5592    12.9644 Any
   127 H127       1.0373   -14.2456    12.9852 Any
   128 H128       2.5167   -14.0186    12.8863 Any
   129 O129     -11.9210    -2.3385     6.1366 Any
   130 H130     -12.6421    -2.8869     6.4163 Any
   131 H131     -11.1718    -2.9193     6.1211 Any
   132 O132       5.4636   -19.5035    18.6387 Any
   133 H133       4.9601   -19.5665    19.4396 Any
   134 H134       5.5176   -20.3949    18.3202 Any
   135 O135      16.9151    -9.2930    17.1883 Any
   136 H136      16.6521    -8.8607    16.3865 Any
   137 H137      17.0131    -8.5902    17.8171 Any
   138 O138     -14.7885   -18.0513     7.7428 Any
   139 H139     -15.3210   -17.5362     7.1513 Any
   140 H140     -15.2571   -18.8704     7.8336 Any
   141 O141     -18.8019     0.1360     9.4575 Any
   142 H142     -18.4220    -0.2293    10.2456 Any
   143 H143     -18.1618     0.7661     9.1541 Any
   144 O144       5.8777   -14.8795    17.4352 Any
   145 H145       5.4535   -14.0516    17.6181 Any
   146 H146       6.8050   -14.6845    17.4674 Any
   147 O147     -16.3779    -2.7652     3.7754 Any
   148 H148     -17.2625    -3.0818     3.6485 Any
   149 H149     -16.4844    -1.8652     4.0540 Any
   150 O150      -5.5234   -14.8413    -7.2237 Any
   151 H151      -4.5805   -14.7798    -7.3005 Any
   152 H152      -5.6659   -15.4953    -6.5522 Any
   153 O153     -12.0307    18.6030    -0.7096 Any
   154 H154     -12.5601    18.0936    -1.3090 Any
   155 H155     -12.2886    18.3017     0.1515 Any
   156 O156     -10.3890     1.0925   -15.5772 Any
   157 H157     -11.1276     0.5157   -15.4330 Any
   158 H158     -10.4008     1.2667   -16.5090 Any
   159 O159      -0.5867   -11.8595   -17.2658 Any
   160 H160       0.3441   -11.7347   -17.3961 Any
   161 H161      -0.6699   -12.0958   -16.3514 Any
   162 O162      15.0101     3.2224    -3.0940 Any
   163 H163      14.8917     2.6487    -3.8395 Any
   164 H164      15.5962     2.7483    -2.5190 Any
   165 O165       7.6574     3.9419    16.6016 Any
   166 H166       7.5093     3.2015    16.0282 Any
   167 H167       8.5314     4.2394    16.3861 Any
   168 O168      12.0737     5.8259   -12.7425 Any
   169 H169      11.7160     6.1156   -11.9137 Any
   170 H170      11.3433     5.8685   -13.3455 Any
   171 O171       2.4742     1.0013   -18.7248 Any
   172 H172       2.4261     1.2945   -17.8245 Any
   173 H173       3.3610     1.2016   -18.9938 Any
   174 O174     -12.2314   -13.5781   -12.7443 Any
   175 H175     -12.6549   -13.4431   -13.5817 Any
   176 H176     -12.3592   -14.4989   -12.5581 Any
   177 O177      13.0013    -6.9964     6.4349 Any
   178 H178      13.2591    -6.5168     7.2111 Any
   179 H179      13.4973    -7.8032     6.4774 Any
   180 O180       5.2939    11.8542     7.7938 Any
   181 H181       5.4883    11.1798     7.1564 Any
   182 H182       4.7204    12.4556     7.3373 Any
   183 O183     -13.9600    -9.9081    18.5706 Any
   184 H184     -13.8863   -10.6601    17.9979 Any
   185 H185     -14.7116    -9.4318    18.2432 Any
   186 O186      -9.2824   -19.5701    -3.9992 Any
   187 H187     -10.1553   -19.7231    -4.3361 Any
   188 H188      -8.7112   -19.7159    -4.7418 Any
   189 O189       4.9900     9.4305    -9.0380 Any
   190 H190       5.7708     8.9376    -9.2534 Any
   191 H191       4.8518     9.2666    -8.1144 Any
   192 O192     -14.2024     4.8661   -14.3148 Any
   193 H193     -13.3905     4.5006   -14.6408 Any
   194 H194     -14.5968     5.2820   -15.0700 Any
   195 O195       0.6338    19.8830    -5.0610 Any
   196 H196       1.1964    19.1200    -5.0454 Any
   197 H197       0.0911    19.7950    -4.2887 Any
   198 O198      18.3028    15.1141   -15.2787 Any
   199 H199      17.6510    14.7075   -15.8342 Any
   200 H200      18.5508    15.9039   -15.7409 Any
   201 O201       5.9271    -5.0859    19.4336 Any
   202 H202       6.0826    -4.3140    18.9055 Any
   203 H203       6.7861    -5.3385    19.7453 Any
   204 O204      -6.6199    16.1969    10.6373 Any
   205 H205      -5.7671    15.9217    10.9468 Any
   206 H206      -6.4909    16.3830     9.7167 Any
   207 O207     -12.4352    15.8108    16.1394 Any
   208 H208     -12.2435    16.3196    16.9161 Any
   209 H209     -12.4382    14.9111    16.4384 Any
   210 O210      -0.9418    -5.0541    11.2400 Any
   211 H211      -0.4613    -5.6931    10.7305 Any
   212 H212      -1.2086    -4.3982    10.6095 Any
   213 O213       3.0950   -10.6807   -16.3913 Any
   214 H214       3.2701   -10.0333   -15.7212 Any
   215 H215       2.8051   -11.4464   -15.9132 Any
   216 O216       4.4799     9.3332     6.7755 Any
   217 H217       3.6782     9.7708     7.0300 Any
   218 H218       4.4163     8.4723     7.1675 Any
   219 O219      -2.3427    -8.2109    -0.6379 Any
   220 H220      -1.5079    -8.5405    -0.3323 Any
   221 H221      -2.8392    -8.0488     0.1533 Any
   222 O222      16.3450   -15.5724     4.6959 Any
   223 H223      15.5636   -15.1859     5.0688 Any
   224 H224      16.1608   -15.6344     3.7679 Any
   225 O225      -5.8434    12.2949    -1.3927 Any
   226 H226      -5.4835    13.1591    -1.5431 Any
   227 H227      -5.1792    11.8444    -0.8880 Any
   228 O228      -5.8523    16.3121     7.8161 Any
   229 H229      -4.9870    16.0462     8.0979 Any
   230 H230      -5.6952    16.9720     7.1538 Any
   231 O231      -1.2140     9.1346     2.0135 Any
   232 H232      -1.3356     8.3004     2.4475 Any
   233 H233      -2.0928     9.4320     1.8181 Any
   234 O234     -16.2538    -7.1566     3.9419 Any
   235 H235     -16.8732    -6.4544     3.7929 Any
   236 H236     -16.2381    -7.6381     3.1253 Any
   237 O237       7.4366    -2.8755    -9.2006 Any
   238 H238       6.9905    -3.0129    -8.3753 Any
   239 H239       8.2539    -2.4577    -8.9632 Any
   240 O240     -19.5415    19.7159   -19.6429 Any
   241 H241     -20.1452    19.3007   -19.0412 Any
   242 H242     -18.8599    20.0726   -19.0887 Any
   243 O243      -8.1029   -13.7883   -10.9171 Any
   244 H244      -8.6987   -14.2467   -10.3392 Any
   245 H245      -8.6480   -13.1598   -11.3717 Any
   246 O246     -16.0927   -15.9372    10.7059 Any
   247 H247     -16.7559   -15.8321    11.3753 Any
   248 H248     -16.5792   -15.9829     9.8934 Any
   249 O249     -11.4160     2.8798    18.6363 Any
   250 H250     -12.0304     2.4055    18.0917 Any
   251 H251     -11.4316     3.7653    18.2979 Any
   252 O252     -19.8435    16.9650   -12.6352 Any
   253 H253     -20.2150    16.7242   -11.7967 Any
   254 H254     -18.9340    17.1557   -12.4471 Any
   255 O255      15.0887    16.9971   -19.0096 Any
   256 H256      15.5432    16.1784   -18.8605 Any
   257 H257      14.6898    16.8962   -19.8638 Any
   258 O258     -16.0660   -10.7776    15.5567 Any
   259 H259     -16.3316   -11.6422    15.2724 Any
   260 H260     -15.2968   -10.9279    16.0902 Any
   261 O261     -16.9453    -5.6194     9.1143 Any
   262 H262     -16.1080    -6.0500     9.2255 Any
   263 H263     -16.7826    -4.9444     8.4687 Any
   264 O264       4.9009    -6.2538    -8.7297 Any
   265 H265       5.3977    -6.2075    -9.5359 Any
   266 H266       4.5084    -5.3953    -8.6418 Any
   267 O267      12.9913   -13.8823   -16.6296 Any
   268 H268      12.5510   -14.6878   -16.3925 Any
   269 H269      13.9105   -14.1129   -16.6591 Any
   270 O270      18.9705     0.1612    -0.5738 Any
   271 H271      19.3299     0.7128    -1.2561 Any
   272 H272      18.2609     0.6702    -0.2046 Any
   273 O273      13.1310    -6.4024   -16.9297 Any
   274 H274      12.9080    -6.5392   -17.8410 Any
   275 H275      13.1113    -7.2695   -16.5467 Any
   276 O276       7.8827    -6.2999   -10.5098 Any
   277 H277       7.3251    -6.5990   -11.2159 Any
   278 H278       7.9369    -5.3610   -10.6301 Any
   279 O279     -12.1938   -16.5173    17.7033 Any
   280 H280     -12.7701   -16.4123    16.9578 Any
   281 H281     -11.6881   -17.2946    17.5061 Any
   282 O282     -17.4192    16.4006   -11.4218 Any
   283 H283     -17.2612    17.1697   -10.8904 Any
   284 H284     -17.1355    15.6750   -10.8815 Any
   285 O285      18.2788     2.4183   -14.7683 Any
   286 H286      19.0636     1.9157   -14.5942 Any
   287 H287      17.8603     2.5078   -13.9223 Any
   288 O288     -14.7981     0.4610   -19.2882 Any
   289 H289     -14.6869    -0.2099   -18.6276 Any
   290 H290     -15.7325     0.4869   -19.4469 Any
   291 O291       5.7817    16.3305    11.5838 Any
   292 H292       5.7042    16.2380    10.6434 Any
   293 H293       6.5600    16.8573    11.7083 Any
   294 O294       2.6970   -16.8284    -6.4256 Any
   295 H295       1.8212   -17.0899    -6.6774 Any
   296 H296       2.7997   -17.1581    -5.5426 Any
   297 O297       9.2932    11.1446     9.3069 Any
   298 H298       9.8042    10.3752     9.0930 Any
   299 H299       9.9273    11.7684     9.6350 Any
   300 O300      17.3564   -12.1154    -5.9629 Any
   301 H301      17.4399   -11.7576    -6.8369 Any
   302 H302      18.2419   -12.3446    -5.7134 Any
   303 O303     -18.5371     8.2199    14.2435 Any
   304 H304     -19.2659     7.8938    14.7547 Any
   305 H305     -17.9326     8.5685    14.8854 Any
   306 O306      -2.3414     9.0911    -7.9702 Any
   307 H307      -2.9290     9.3099    -7.2591 Any
   308 H308      -1.9046     9.9065    -8.1781 Any
   309 O309     -13.2663   -16.4215     9.3873 Any
   310 H310     -14.0166   -15.8936     9.6266 Any
   311 H311     -13.5982   -17.0272     8.7378 Any
   312 O312      -9.1843   -17.9913    14.1619 Any
   313 H313      -9.7885   -17.6816    14.8236 Any
   314 H314      -9.6725   -17.9405    13.3507 Any
   315 O315      15.0400   -19.8473    15.1034 Any
   316 H316      14.6402   -19.0632    15.4557 Any
   317 H317      14.7793   -19.8591    14.1919 Any
   318 O318     -13.8555   -18.6474   -18.4441 Any
   319 H319     -14.5000   -17.9921   -18.6767 Any
   320 H320     -13.7071   -19.1311   -19.2459 Any
   321 O321       6.4788    11.6475    12.4796 Any
   322 H322       6.6454    12.5600    12.6760 Any
   323 H323       6.6483    11.5689    11.5501 Any
   324 O324      15.6090    -3.8465   -11.7190 Any
   325 H325      16.3207    -4.3146   -11.3027 Any
   326 H326      15.6022    -4.1672   -12.6112 Any
   327 O327       6.5498     5.2351     2.9416 Any
   328 H328       6.8072     4.3255     3.0144 Any
   329 H329       7.3682     5.7118     2.8976 Any
   330 O330      14.7797    -9.7567    20.2257 Any
   331 H331      14.5895    -9.8130    19.2986 Any
   332 H332      15.1002   -10.6187    20.4562 Any
   333 O333      14.8115   -10.8268   -14.5572 Any
   334 H334      14.6470   -10.0323   -14.0666 Any
   335 H335      15.0998   -11.4534   -13.9066 Any
   336 O336       8.1190    14.2758     7.8383 Any
   337 H337       8.4136    15.0310     7.3465 Any
   338 H338       7.4047    14.6013     8.3700 Any
   339 O339       4.0528    16.7374    13.6268 Any
   340 H340       3.3762    16.0732    13.6288 Any
   341 H341       4.5900    16.5282    12.8741 Any
   342 O342       8.4834     9.5965   -12.2792 Any
   343 H343       8.7601     9.5284   -13.1834 Any
   344 H344       8.5561    10.5198   -12.0764 Any
   345 O345       2.0417   -14.3395    -7.6048 Any
   346 H346       2.1311   -13.6154    -6.9994 Any
   347 H347       2.8269   -14.8554    -7.4773 Any
   348 O348      -6.4905   -17.9840     2.2711 Any
   349 H349      -5.8612   -17.3314     1.9936 Any
   350 H350      -6.3021   -18.7412     1.7326 Any
   351 O351      13.0145   -12.9714    -3.9582 Any
   352 H352      13.5930   -13.3201    -4.6234 Any
   353 H353      13.2066   -12.0432    -3.9378 Any
   354 O354      -0.2905    17.1997    14.9398 Any
   355 H355       0.3031    17.5489    14.2882 Any
   356 H356       0.2023    16.5114    15.3668 Any
   357 O357       6.9451    13.1487   -10.8489 Any
   358 H358       6.9395    13.4896   -11.7335 Any
   359 H359       6.0293    13.0360   -10.6309 Any
   360 O360      11.9108    16.2954    13.6573 Any
   361 H361      11.1960    16.4114    13.0454 Any
   362 H362      11.7170    15.4787    14.0983 Any
   363 O363      19.4143   -11.0770     6.1972 Any
   364 H364      18.9592   -11.7709     5.7386 Any
   365 H365      18.9558   -10.2855     5.9476 Any
   366 O366      16.1682   -11.0466     0.9212 Any
   367 H367      15.6188   -11.7548     0.6121 Any
   368 H368      16.3566   -10.5350     0.1455 Any
   369 O369      16.8995   -12.5008    12.8942 Any
   370 H370      15.9979   -12.7922    12.9285 Any
   371 H371      17.3047   -13.0554    12.2407 Any
   372 O372      -1.9662     2.4057     1.8884 Any
   373 H373      -1.8718     1.6784     2.4892 Any
   374 H374      -1.8093     3.1755     2.4192 Any
   375 O375       3.9583    19.6587   -19.1459 Any
   376 H376       4.2900    18.9834   -18.5690 Any
   377 H377       3.6164    20.3236   -18.5628 Any
   378 O378      -4.5686   -14.7123    15.6723 Any
   379 H379      -4.6773   -14.0797    14.9745 Any
   380 H380      -4.4774   -15.5446    15.2276 Any
   381 O381      11.1083    18.6659    19.7324 Any
   382 H382      11.2612    19.2516    20.4620 Any
   383 H383      10.7412    19.2190    19.0554 Any
   384 O384     -10.9928    -5.6900   -13.6625 Any
   385 H385     -10.7982    -5.6581   -14.5898 Any
   386 H386     -11.8711    -6.0440   -13.6152 Any
   387 O387     -15.5475     6.5108   -16.2266 Any
   388 H388     -16.4103     6.5055   -15.8335 Any
   389 H389     -15.3744     7.4248   -16.4094 Any
   390 O390     -14.8468   -19.7422    10.9129 Any
   391 H391     -14.7679   -19.0639    11.5706 Any
   392 H392     -14.5406   -19.3356    10.1130 Any
   393 O393       6.5281    13.6487    19.8599 Any
   394 H394       7.3745    13.2264    19.7953 Any
   395 H395       6.7268    14.5480    20.0852 Any
   396 O396     -19.3357   -10.9995   -10.4731 Any
   397 H397     -19.6266   -10.3362   -11.0848 Any
   398 H398     -19.8173   -11.7783   -10.7190 Any
   399 O399      14.8072   -10.2254     3.4813 Any
   400 H400      15.4110   -10.6537     2.8889 Any
   401 H401      15.0515    -9.3098     3.4499 Any
   402 O402     -13.9429   -10.5263    -4.9452 Any
   403 H403     -13.4434    -9.7287    -5.0601 Any
   404 H404     -13.3010   -11.2210    -5.0095 Any
   405 O405     -11.3943   -11.8798     8.0036 Any
   406 H406     -11.3453   -12.6575     7.4635 Any
   407 H407     -10.9457   -12.1171     8.8045 Any
   408 O408      -2.9784   -16.4670    -9.3776 Any
   409 H409      -3.4228   -16.4569   -10.2151 Any
   410 H410      -2.6474   -15.5848    -9.2726 Any
   411 O411      -2.7666     7.7579   -10.8708 Any
   412 H412      -1.9483     8.2333   -10.8136 Any
   413 H413      -3.2058     7.9396   -10.0504 Any
   414 O414      -6.0071    -7.2707    -1.9416 Any
   415 H415      -5.8337    -6.9558    -1.0642 Any
   416 H416      -5.7447    -8.1816    -1.9242 Any
   417 O417      -9.3078     8.4833    10.3438 Any
   418 H418     -10.0593     7.9377    10.5347 Any
   419 H419      -9.6481     9.3682    10.3485 Any
   420 O420      15.6953   -12.7249   -16.5499 Any
   421 H421      15.5463   -12.4610   -17.4482 Any
   422 H422      15.3812   -11.9956   -16.0318 Any
   423 O423       6.0754     6.0416    16.2540 Any
   424 H424       6.4812     5.1871    16.3171 Any
   425 H425       5.5336     6.1061    17.0294 Any
   426 O426     -12.4152    -6.8075    15.4918 Any
   427 H427     -11.9841    -7.0692    14.6890 Any
   428 H428     -11.7984    -6.2246    15.9146 Any
   429 O429     -12.1799     3.5158     7.7379 Any
   430 H430     -12.0384     3.4265     6.8047 Any
   431 H431     -11.3133     3.6483     8.0990 Any
   432 O432     -13.7972     8.2756   -12.8449 Any
   433 H433     -13.2346     7.8839   -12.1900 Any
   434 H434     -13.8511     7.6252   -13.5327 Any
   435 O435       2.0906     6.3660   -18.4736 Any
   436 H436       2.2803     5.8447   -19.2424 Any
   437 H437       2.6173     7.1473   -18.5792 Any
   438 O438      -8.4910    17.4501    -2.4211 Any
   439 H439      -8.0503    16.9883    -1.7201 Any
   440 H440      -8.0755    18.3020    -2.4437 Any
   441 O441      -1.9766    -8.1709    10.3998 Any
   442 H442      -1.2563    -8.4443    10.9523 Any
   443 H443      -1.5683    -7.9235     9.5806 Any
   444 O444      17.7906    10.6898   -16.7765 Any
   445 H445      17.5465     9.8720   -17.1895 Any
   446 H446      18.6828    10.8424   -17.0585 Any
   447 O447      -4.5241    19.9359     8.3424 Any
   448 H448      -5.1206    20.1270     7.6307 Any
   449 H449      -3.8423    19.4088     7.9472 Any
   450 O450     -14.6115    -5.5379   -17.9935 Any
   451 H451     -13.7997    -5.9179   -17.6845 Any
   452 H452     -15.2490    -5.7651   -17.3296 Any
   453 O453      11.7073    15.0326    10.0046 Any
   454 H454      11.5617    14.4718    10.7551 Any
   455 H455      11.3889    15.8830    10.2769 Any
   456 O456     -12.0263     5.0090    13.4524 Any
   457 H457     -12.3986     4.4270    14.1016 Any
   458 H458     -11.1190     5.1049    13.7103 Any
   459 O459      15.6463    -7.5061    -2.9577 Any
   460 H460      15.9089    -6.9061    -2.2722 Any
   461 H461      14.8478    -7.9023    -2.6349 Any
   462 O462     -10.3719    -0.2693    -7.4130 Any
   463 H463     -11.2386    -0.6534    -7.3982 Any
   464 H464     -10.5140     0.6296    -7.6787 Any
   465 O465     -17.6103    17.8834    -9.0557 Any
   466 H466     -17.7293    18.6895    -8.5711 Any
   467 H467     -16.7555    17.9700    -9.4565 Any
   468 O468       8.0882   -15.7659   -18.5893 Any
   469 H469       7.8716   -16.4017   -19.2584 Any
   470 H470       7.7260   -14.9502   -18.9093 Any
   471 O471      -3.2510     9.4872   -18.7514 Any
   472 H472      -2.4332     9.0200   -18.6422 Any
   473 H473      -3.4808     9.7731   -17.8771 Any
   474 O474      -1.3261   -18.5278   -15.1789 Any
   475 H475      -1.4778   -18.6444   -16.1075 Any
   476 H476      -0.4267   -18.7981   -15.0484 Any
   477 O477     -16.1984   -13.9863    16.4702 Any
   478 H478     -16.4577   -14.1527    17.3668 Any
   479 H479     -15.9488   -14.8363    16.1324 Any
   480 O480       3.4079    13.0428    -4.7892 Any
   481 H481       3.8850    13.3192    -5.5605 Any
   482 H482       4.0374    13.1080    -4.0833 Any
   483 O483      -4.2564    11.0291    19.3865 Any
   484 H484      -3.9591    10.2821    19.8890 Any
   485 H485      -4.5689    11.6446    20.0364 Any
   486 O486      -4.4712    14.5571    -1.7757 Any
   487 H487      -4.7702    14.6845    -0.8851 Any
   488 H488      -4.1220    15.4002    -2.0329 Any
   489 O489      17.3430    -1.0387     7.0457 Any
   490 H490      17.3146    -1.5064     6.2215 Any
   491 H491      17.5585    -1.7013     7.6887 Any
   492 O492     -14.2961    -5.7736    18.2627 Any
   493 H493     -14.6162    -5.1101    18.8595 Any
   494 H494     -13.4563    -5.4454    17.9695 Any
   495 O495      -5.1126    20.0933    11.2295 Any
   496 H496      -5.9422    19.6364    11.1854 Any
   497 H497      -4.6872    19.8954    10.4057 Any
   498 O498     -12.0611    -0.5402     4.0711 Any
   499 H499     -12.5505     0.1394     4.5156 Any
   500 H500     -11.7693    -1.1166     4.7650 Any
   501 O501       0.6856     0.5498     1.4724 Any
   502 H502       0.1517     0.7749     2.2228 Any
   503 H503       0.0618     0.3599     0.7841 Any
   504 O504      -1.0537    -0.8001    -0.1924 Any
   505 H505      -1.4370    -0.9904     0.6537 Any
   506 H506      -1.7507    -0.9673    -0.8130 Any
   507 O507      -9.6530    18.8355   -18.6116 Any
   508 H508      -8.9735    18.3906   -19.1006 Any
   509 H509      -9.3911    18.7469   -17.7047 Any
   510 O510      -9.6100     2.6643     1.1056 Any
   511 H511      -9.2948     3.5174     1.3736 Any
   512 H512      -9.6424     2.1594     1.9074 Any
   513 O513     -18.7998    -1.8083     0.0203 Any
   514 H514     -17.9391    -1.8080    -0.3773 Any
   515 H515     -19.1959    -0.9966    -0.2679 Any
   516 O516      -2.0146    14.2363   -11.6239 Any
   517 H517      -1.3854    14.4112   -10.9366 Any
   518 H518      -2.4588    15.0633   -11.7567 Any
   519 O519       5.0471   -11.1136   -18.4236 Any
   520 H520       4.7242   -10.7240   -19.2253 Any
   521 H521       4.3123   -11.0728   -17.8258 Any
   522 O522      -3.2523     5.5491    16.5994 Any
   523 H523      -4.1615     5.8059    16.6776 Any
   524 H524      -3.2503     4.6193    16.7844 Any
   525 O525     -11.3909    -8.5002     1.9746 Any
   526 H526     -11.6420    -7.6032     2.1512 Any
   527 H527     -11.0803    -8.8294     2.8077 Any
   528 O528       6.4636   -13.8559    -5.9491 Any
   529 H529       5.8913   -13.5323    -6.6323 Any
   530 H530       6.2263   -14.7687    -5.8518 Any
   531 O531      18.2284     3.6042    -6.1756 Any
   532 H532      18.6626     2.7865    -6.3799 Any
   533 H533      18.1213     3.5884    -5.2337 Any
   534 O534      18.0011   -14.9540    -9.1318 Any
   535 H535      18.4526   -15.7840    -9.2103 Any
   536 H536      17.8562   -14.8483    -8.2009 Any
   537 O537     -19.0841   -17.1283    -5.1017 Any
   538 H538     -19.7042   -16.7056    -4.5222 Any
   539 H539     -19.4345   -17.9997    -5.2312 Any
   540 O540     -10.0997    -5.1128    10.9747 Any
   541 H541     -10.5998    -4.3546    11.2469 Any
   542 H542     -10.2752    -5.1936    10.0465 Any
   543 O543       9.6749    -1.4120     2.3243 Any
   544 H544      10.3944    -1.6040     2.9111 Any
   545 H545       8.8988    -1.6578     2.8103 Any
   546 O546      12.7685   -10.8644   -18.4089 Any
   547 H547      13.0899   -11.7503   -18.5132 Any
   548 H548      13.4254   -10.3219   -18.8249 Any
   549 O549       0.3945   -17.1143    10.5679 Any
   550 H550      -0.4733   -17.3779    10.8444 Any
   551 H551       0.2533   -16.6409     9.7586 Any
   552 O552     -18.5222    15.7210    10.7357 Any
   553 H553     -18.3373    14.8761    11.1242 Any
   554 H554     -19.1112    15.5296    10.0178 Any
   555 O555      10.4809     5.8439     4.4201 Any
   556 H556      11.3518     6.1568     4.2141 Any
   557 H557       9.9606     6.0691     3.6601 Any
   558 O558      12.3845     6.5417     0.8922 Any
   559 H559      11.7533     6.0549     0.3789 Any
   560 H560      13.0811     6.7460     0.2822 Any
   561 O561      11.0521     3.9270    -1.3007 Any
   562 H562      11.1157     3.6011    -2.1888 Any
   563 H563      10.9703     4.8667    -1.3968 Any
   564 O564      -7.7668    10.5079    12.1579 Any
   565 H565      -8.2247    10.1113    12.8872 Any
   566 H566      -6.9507    10.8170    12.5284 Any
   567 O567       2.7485    -6.9554   -12.0329 Any
   568 H568       2.2245    -7.5711   -12.5281 Any
   569 H569       2.2458    -6.1516   -12.0437 Any
   570 O570      15.1177   -16.0568   -13.6228 Any
   571 H571      14.8685   -16.8612   -14.0583 Any
   572 H572      14.5181   -15.9858   -12.8917 Any
   573 O573     -12.2523    -9.4225     7.9037 Any
   574 H574     -11.8112   -10.2451     8.0704 Any
   575 H575     -12.4723    -9.4524     6.9820 Any
   576 O576      17.8494    -2.3042   -19.5348 Any
   577 H577      17.7907    -1.7922   -20.3306 Any
   578 H578      18.0769    -3.1764   -19.8286 Any
   579 O579       2.9539    13.7448   -17.7334 Any
   580 H580       3.0152    14.6051   -18.1271 Any
   581 H581       2.5930    13.1952   -18.4165 Any
   582 O582      -3.2956    13.0398     7.4744 Any
   583 H583      -3.2878    13.9463     7.1970 Any
   584 H584      -2.6674    13.0020     8.1835 Any
   585 O585       0.1711     5.9120     9.5284 Any
   586 H586      -0.6075     6.2155     9.9764 Any
   587 H587       0.7009     6.6904     9.4173 Any
   588 O588      -6.1628   -19.2499    13.8952 Any
   589 H589      -7.0832   -19.0532    13.7810 Any
   590 H590      -5.9193   -19.7176    13.1072 Any
   591 O591      -6.0282    -0.3202    -2.8567 Any
   592 H592      -6.7363     0.1898    -2.4860 Any
   593 H593      -5.6473     0.2447    -3.5160 Any
   594 O594      -8.9134    10.1024    14.6008 Any
   595 H595      -9.4506    10.2331    15.3710 Any
   596 H596      -8.1661     9.6089    14.9122 Any
   597 O597       7.7803    15.4315    14.8255 Any
   598 H598       7.6819    14.6806    15.3959 Any
   599 H599       7.6277    15.0907    13.9540 Any
   600 O600      -7.7948   -15.8300    15.1663 Any
   601 H601      -8.1981   -16.6175    14.8257 Any
   602 H602      -7.5426   -16.0552    16.0521 Any
   603 O603      18.7255     5.6865     8.8168 Any
   604 H604      18.8221     4.9982     8.1719 Any
   605 H605      18.3672     6.4185     8.3325 Any
   606 O606      10.4493    17.1691    11.3442 Any
   607 H607      10.7461    18.0100    11.0222 Any
   608 H608       9.7012    17.3732    11.8898 Any
   609 O609       3.3577   -16.9529    -3.7021 Any
   610 H610       2.4402   -17.1132    -3.5250 Any
   611 H611       3.7681   -17.8039    -3.6229 Any
   612 O612     -13.9156    10.3785    11.4920 Any
   613 H613     -14.5139    10.9966    11.8905 Any
   614 H614     -13.3868    10.9029    10.9052 Any
   615 O615      -0.4996   -14.4911   -10.9676 Any
   616 H616      -0.9443   -14.9299   -11.6808 Any
   617 H617      -0.1459   -13.7021   -11.3566 Any
   618 O618       3.9873   -18.0154    13.4252 Any
   619 H619       4.7624   -17.7723    12.9364 Any
   620 H620       4.3132   -18.2681    14.2789 Any
   621 O621      -5.3542    14.9010    19.6727 Any
   622 H622      -4.4415    15.0629    19.4735 Any
   623 H623      -5.8189    15.1578    18.8872 Any
   624 O624      19.5509    -7.8133    11.2154 Any
   625 H625      19.9512    -7.1469    11.7581 Any
   626 H626      20.2018    -8.0039    10.5529 Any
   627 O627      -6.6781     3.9334    12.6999 Any
   628 H628      -5.8815     3.8404    13.2056 Any
   629 H629      -6.8550     3.0620    12.3710 Any
   630 O630      14.3043    16.5958    -7.5722 Any
   631 H631      14.5907    15.7559    -7.9061 Any
   632 H632      13.8254    16.9873    -8.2908 Any
   633 O633     -15.7230    -4.5982    16.1308 Any
   634 H634     -15.0398    -4.0331    15.7950 Any
   635 H635     -15.2711    -5.2055    16.7016 Any
   636 O636     -15.4588   -15.1670   -10.3317 Any
   637 H637     -16.2096   -14.8478    -9.8487 Any
   638 H638     -15.8031   -15.3925   -11.1858 Any
   639 O639      -7.5327    -2.9469    15.9331 Any
   640 H640      -7.4699    -3.8929    15.9361 Any
   641 H641      -7.2711    -2.6878    16.8069 Any
   642 O642     -19.1071    -7.8767    -3.8826 Any
   643 H643     -19.6070    -8.6545    -4.0927 Any
   644 H644     -19.5282    -7.5241    -3.1097 Any
   645 O645      18.2688     3.7044    16.8821 Any
   646 H646      19.0773     4.1844    17.0039 Any
   647 H647      17.5918     4.3676    16.9068 Any
   648 O648      16.8887    18.6039    -6.9637 Any
   649 H649      17.2799    19.1717    -7.6144 Any
   650 H650      16.1340    18.2283    -7.3977 Any
   651 O651     -15.0786    -9.3861    12.2716 Any
   652 H652     -15.1874    -8.4712    12.4953 Any
   653 H653     -15.7172    -9.8398    12.8057 Any
   654 O654      -8.8818    -6.7843     2.2292 Any
   655 H655      -7.9346    -6.7681     2.2653 Any
   656 H656      -9.0862    -6.7328     1.3048 Any
   657 O657     -12.7998    -1.3308    -7.4516 Any
   658 H658     -13.5440    -1.5511    -7.9961 Any
   659 H659     -12.3892    -2.1637    -7.2603 Any
   660 O660       6.7220     8.2576   -19.3300 Any
   661 H661       6.9665     7.7123   -18.5940 Any
   662 H662       6.3611     9.0412   -18.9368 Any
   663 O663      11.8633   -18.4220    -7.1847 Any
   664 H664      11.1954   -18.1489    -6.5698 Any
   665 H665      11.5264   -18.1647    -8.0327 Any
   666 O666     -10.0120   -13.8115   -14.1615 Any
   667 H667     -10.4342   -14.2671   -14.8778 Any
   668 H668     -10.7263   -13.5191   -13.6109 Any
   669 O669      10.1848    11.7035   -17.4635 Any
   670 H670       9.7718    11.0118   -17.9634 Any
   671 H671      10.9053    11.2779   -17.0177 Any
   672 O672      -4.5065     8.5729     1.9232 Any
   673 H673      -4.4798     8.1779     2.7847 Any
   674 H674      -4.0538     7.9556     1.3638 Any
   675 O675      -2.1682     4.5630     0.1557 Any
   676 H676      -2.0767     3.6690     0.4577 Any
   677 H677      -1.4884     4.6649    -0.4973 Any
   678 O678      -9.2523     9.9644   -14.3548 Any
   679 H679      -9.2731     9.1561   -13.8598 Any
   680 H680      -9.2609    10.6471   -13.6969 Any
   681 O681     -17.5202     0.6103   -18.6985 Any
   682 H682     -17.5048    -0.3367   -18.7428 Any
   683 H683     -18.3947     0.8479   -18.9774 Any
   684 O684      -6.3780     8.3094    -9.4498 Any
   685 H685      -6.2082     9.0076   -10.0684 Any
   686 H686      -7.0639     8.6485    -8.8899 Any
   687 O687       4.6930     2.0285   -10.9417 Any
   688 H688       4.2291     1.4006   -11.4797 Any
   689 H689       4.4730     2.8715   -11.3156 Any
   690 O690     -18.4113     1.3383     0.8820 Any
   691 H691     -18.9235     2.0383     0.4992 Any
   692 H692     -18.9306     1.0363     1.6155 Any
   693 O693      -4.8992   -13.6565     9.8310 Any
   694 H694      -5.0025   -12.7182     9.9189 Any
   695 H695      -5.7662   -13.9726     9.6137 Any
   696 O696       2.5988     6.7393    -9.1577 Any
   697 H697       2.3094     7.5050    -8.6793 Any
   698 H698       2.6655     7.0313   -10.0573 Any
   699 O699      -6.9734   -12.0360    17.9695 Any
   700 H700      -7.3770   -11.2576    18.3301 Any
   701 H701      -6.9248   -11.8695    17.0374 Any
   702 O702      10.4205     8.3444     6.5354 Any
   703 H703       9.5652     8.2348     6.1411 Any
   704 H704      10.4390     7.7144     7.2437 Any
   705 O705      18.9159   -13.0649   -10.7400 Any
   706 H706      18.5334   -13.7580   -10.2183 Any
   707 H707      19.2537   -13.5041   -11.5093 Any
   708 O708     -19.8787    16.6586   -18.8908 Any
   709 H709     -19.7178    15.7829   -19.2167 Any
   710 H710     -19.4014    16.7000   -18.0727 Any
   711 O711      13.7213    13.5339    15.4120 Any
   712 H712      13.5006    14.4555    15.4407 Any
   713 H713      14.4372    13.4793    14.7928 Any
   714 O714       2.6165     0.3214    12.8298 Any
   715 H715       3.4180     0.4218    12.3334 Any
   716 H716       2.7890    -0.4025    13.4173 Any
   717 O717     -16.1672   -10.5045     1.8276 Any
   718 H718     -16.3027   -10.9888     2.6313 Any
   719 H719     -15.5159    -9.8521     2.0492 Any
   720 O720      15.8610    13.3804    13.6818 Any
   721 H721      15.6879    13.1842    12.7705 Any
   722 H722      16.7273    13.7656    13.6824 Any
   723 O723      -8.4140    -8.2021    -7.4076 Any
   724 H724      -9.2432    -8.1145    -7.8588 Any
   725 H725      -8.5910    -7.9075    -6.5239 Any
   726 O726      12.1778   -16.5458   -15.3076 Any
   727 H727      12.5999   -17.3939   -15.2709 Any
   728 H728      11.4190   -16.6807   -15.8597 Any
   729 O729      20.0972     3.6833    -0.0058 Any
   730 H730      19.7217     3.9026    -0.8483 Any
   731 H731      19.5666     4.1556     0.6221 Any
   732 O732     -17.9909    -7.4055     6.8876 Any
   733 H733     -17.4800    -7.3444     7.6840 Any
   734 H734     -18.8890    -7.2974     7.1716 Any
   735 O735      -9.6693   -10.3648    -5.9611 Any
   736 H736      -9.0261   -10.2437    -6.6471 Any
   737 H737      -9.3440   -11.0983    -5.4560 Any
   738 O738       4.1972     0.9197    -3.7781 Any
   739 H739       4.6302     1.2021    -2.9833 Any
   740 H740       4.3499    -0.0153    -3.8135 Any
   741 O741       7.3129    -6.6674     6.5023 Any
   742 H742       7.3397    -5.7202     6.4731 Any
   743 H743       7.8416    -6.9438     5.7654 Any
   744 O744     -13.9894    18.8049   -14.0637 Any
   745 H745     -13.9074    17.8934   -14.3114 Any
   746 H746     -13.2850    18.9484   -13.4456 Any
   747 O747      14.0489    -4.8409     3.9256 Any
   748 H748      13.2377    -5.3300     3.8851 Any
   749 H749      13.9404    -4.1461     3.2897 Any
   750 O750      -0.8984    -0.7772   -18.0326 Any
   751 H751      -0.7156     0.1380   -17.8654 Any
   752 H752      -0.7378    -0.8867   -18.9606 Any
   753 O753       7.0210    -9.4046   -17.5437 Any
   754 H754       7.8699    -9.8029   -17.6836 Any
   755 H755       6.3990   -10.0714   -17.8036 Any
   756 O756       8.5598     8.8623     3.9613 Any
   757 H757       8.0118     9.0309     3.2062 Any
   758 H758       8.1970     8.0767     4.3486 Any
   759 O759      11.7935    12.8898    -1.5784 Any
   760 H760      12.4707    13.2608    -1.0281 Any
   761 H761      11.7402    11.9816    -1.3114 Any
   762 O762     -13.8189    -8.2443   -19.1663 Any
   763 H763     -14.3647    -7.5107   -19.4170 Any
   764 H764     -13.9944    -8.9069   -19.8213 Any
   765 O765     -18.8231   -10.6708    -2.0819 Any
   766 H766     -18.3408   -10.2914    -1.3591 Any
   767 H767     -18.3216   -10.4372    -2.8519 Any
   768 O768     -11.0565     2.5649    -8.8716 Any
   769 H769     -10.9615     3.5080    -8.8477 Any
   770 H770     -10.2508     2.2539    -9.2627 Any
   771 O771      15.6841    -5.1307    -6.8545 Any
   772 H772      15.6174    -4.9130    -5.9342 Any
   773 H773      16.4293    -4.6329    -7.1640 Any
   774 O774       6.5756   -14.2973   -13.2428 Any
   775 H775       6.3148   -14.8697   -12.5335 Any
   776 H776       6.8156   -14.8846   -13.9473 Any
   777 O777       2.9651    15.0759    -1.9269 Any
   778 H778       3.3073    14.3885    -1.3708 Any
   779 H779       2.0523    14.8509    -2.0498 Any
   780 O780      17.4429    -0.3319    -7.6773 Any
   781 H781      17.6957     0.2350    -8.3940 Any
   782 H782      16.7690    -0.8906    -8.0414 Any
   783 O783      -9.3860     5.7736    -4.0904 Any
   784 H784      -9.0936     5.5661    -4.9681 Any
   785 H785     -10.3173     5.5960    -4.1011 Any
   786 O786       5.3926     3.8173    -6.1411 Any
   787 H787       4.7108     4.3207    -6.5661 Any
   788 H788       5.1577     3.8253    -5.2226 Any
   789 O789      19.1435     2.9578    12.6484 Any
   790 H790      18.9306     3.8812    12.6756 Any
   791 H791      19.8903     2.9022    12.0670 Any
   792 O792       2.4226   -15.9147   -12.2336 Any
   793 H793       2.6182   -15.0151   -12.0071 Any
   794 H794       2.3763   -15.9176   -13.1805 Any
   795 O795       0.0854     2.8166   -19.4121 Any
   796 H796       0.3336     3.7312   -19.4407 Any
   797 H797       0.5412     2.4693   -18.6568 Any
   798 O798       0.3239     8.4347     7.7824 Any
   799 H799       0.4832     9.2822     7.3885 Any
   800 H800      -0.3148     8.0241     7.2146 Any
   801 O801       4.0973    12.2272    -9.5592 Any
   802 H802       3.7457    12.1473   -10.4360 Any
   803 H803       4.2604    11.3343    -9.2853 Any
   804 O804      13.0797   -14.7324    11.2424 Any
   805 H805      12.9185   -15.3725    10.5618 Any
   806 H806      12.3427   -14.8206    11.8322 Any
   807 O807      11.0519    14.1354   -10.6077 Any
   808 H808      10.5345    14.9188   -10.4756 Any
   809 H809      11.8568    14.2985   -10.1340 Any
   810 O810      -6.7676     0.4390    -7.2885 Any
   811 H811      -6.1464     0.9603    -7.7797 Any
   812 H812      -6.3015     0.1919    -6.5008 Any
   813 O813       1.2317    18.2972   -18.0991 Any
   814 H814       1.2979    19.2411   -18.1596 Any
   815 H815       0.6211    18.1460   -17.3897 Any
   816 O816       9.1170   -12.5368   -18.5096 Any
   817 H817       9.0112   -12.2462   -17.6134 Any
   818 H818       8.2380   -12.7432   -18.7987 Any
   819 O819       1.7344     1.9203     8.4912 Any
   820 H820       1.7590     1.0276     8.1730 Any
   821 H821       1.5772     1.8373     9.4225 Any
   822 O822      12.0045     7.1455    10.0582 Any
   823 H823      11.3424     6.8990     9.4259 Any
   824 H824      12.7905     6.7037     9.7650 Any
   825 O825       4.3328    -6.6220   -18.9281 Any
   826 H826       4.5941    -6.4395   -18.0352 Any
   827 H827       4.9124    -6.0921   -19.4593 Any
   828 O828      -9.9818    10.5871    -0.9548 Any
   829 H829      -9.0850    10.7479    -1.2169 Any
   830 H830     -10.1613    11.2490    -0.3001 Any
   831 O831      17.4387    10.7820    10.1357 Any
   832 H832      16.5651    11.1176     9.9834 Any
   833 H833      17.3028     9.9006    10.4573 Any
   834 O834      -6.1373    15.4121   -16.8270 Any
   835 H835      -7.0808    15.4302   -16.9183 Any
   836 H836      -5.9111    14.4925   -16.8709 Any
   837 O837      15.5377   -13.9013    -9.9765 Any
   838 H838      16.4324   -14.1254    -9.7572 Any
   839 H839      15.1610   -13.5984    -9.1609 Any
   840 O840       2.6829     3.2431    -0.5492 Any
   841 H841       3.5867     3.4132    -0.3187 Any
   842 H842       2.2751     4.0989    -0.5628 Any
   843 O843       1.0801     3.7768    15.7004 Any
   844 H844       0.3478     4.2375    16.0882 Any
   845 H845       1.5451     4.4400    15.2076 Any
   846 O846       1.8411    -0.7759     7.9325 Any
   847 H847       1.7108    -1.0508     8.8305 Any
   848 H848       2.6870    -1.1317     7.6945 Any
   849 O849      -5.6461     4.6805     4.8972 Any
   850 H850      -4.7326     4.4270     4.9082 Any
   851 H851      -5.9745     4.3531     4.0702 Any
   852 O852       5.5313    18.1549   -17.5056 Any
   853 H853       5.5131    17.4033   -18.0832 Any
   854 H854       6.0138    17.8593   -16.7448 Any
   855 O855      -2.9949   -10.1889   -12.5397 Any
   856 H856      -2.1407    -9.9119   -12.8439 Any
   857 H857      -2.9108   -11.1246   -12.4123 Any
   858 O858      -5.8637    -1.5412    14.0883 Any
   859 H859      -6.4995    -1.8576    14.7164 Any
   860 H860      -5.5846    -0.7032    14.4330 Any
   861 O861     -16.2127    19.2244    -3.7861 Any
   862 H862     -16.7614    18.4542    -3.7182 Any
   863 H863     -15.5559    18.9934    -4.4296 Any
   864 O864       0.9101    13.3192    -5.3304 Any
   865 H865       1.8179    13.3228    -5.0569 Any
   866 H866       0.4192    13.2132    -4.5263 Any
   867 O867      19.9110    -3.8055    -1.3604 Any
   868 H868      19.3353    -4.2652    -0.7637 Any
   869 H869      20.3099    -3.1270    -0.8318 Any
   870 O870       5.3379    16.2829    15.8759 Any
   871 H871       5.9345    15.5820    15.6486 Any
   872 H872       4.7790    16.3762    15.1158 Any
   873 O873       7.8062   -15.2010    15.2127 Any
   874 H874       8.4867   -14.5447    15.1414 Any
   875 H875       8.2391   -15.9529    15.5950 Any
   876 O876      -1.1198    11.8694    15.9727 Any
   877 H877      -1.8638    11.6479    16.5171 Any
   878 H878      -0.5625    11.1032    16.0073 Any
   879 O879      -7.0260    11.2877     7.4533 Any
   880 H880      -7.7937    11.1988     6.9040 Any
   881 H881      -6.9426    12.2211     7.5973 Any
   882 O882      12.8795    19.1337     6.0909 Any
   883 H883      13.4448    19.1112     5.3301 Any
   884 H884      13.4050    18.7668     6.7895 Any
   885 O885     -14.4615    -6.0528   -11.0180 Any
   886 H886     -14.9028    -5.7182   -10.2484 Any
   887 H887     -14.6933    -5.4460   -11.7085 Any
   888 O888     -18.6462    -6.1217     4.1955 Any
   889 H889     -19.0924    -6.7858     4.7041 Any
   890 H890     -19.2207    -5.9594     3.4589 Any
   891 O891      -0.8547   -12.6469    16.5451 Any
   892 H892      -1.2444   -12.7517    15.6872 Any
   893 H893      -0.9331   -13.5012    16.9487 Any
   894 O894     -19.5198    18.9113    -2.8683 Any
   895 H895     -19.3625    18.9514    -1.9342 Any
   896 H896     -19.1725    18.0697    -3.1327 Any
   897 O897       1.9804    10.6932     7.6136 Any
   898 H898       1.3505    11.2894     7.2304 Any
   899 H899       2.2926    11.1418     8.3883 Any
   900 O900     -16.5522    18.9872    13.6701 Any
   901 H901     -16.4476    18.7065    12.7706 Any
   902 H902     -17.4896    19.0670    13.7877 Any
   903 O903      -1.7332   -16.4425     7.6121 Any
   904 H904      -2.5639   -16.8236     7.8644 Any
   905 H905      -1.7018   -15.6136     8.0713 Any
   906 O906       7.4867     2.3468    -6.7935 Any
   907 H907       7.3800     2.4685    -7.7277 Any
   908 H908       6.6613     2.6270    -6.4206 Any
   909 O909      -7.8286    -5.5158   -14.2361 Any
   910 H910      -7.9985    -5.9266   -15.0735 Any
   911 H911      -8.6730    -5.4936   -13.8056 Any
   912 O912      -2.8487    13.2477   -15.2101 Any
   913 H913      -2.1793    13.8751   -15.4494 Any
   914 H914      -3.4846    13.7525   -14.7206 Any
   915 O915      -4.4603     8.4831    -2.9379 Any
   916 H916      -4.2797     8.0831    -2.0975 Any
   917 H917      -4.9782     7.8388    -3.4022 Any
   918 O918     -16.2981   -12.0556     7.3224 Any
   919 H919     -15.9714   -11.2538     7.7088 Any
   920 H920     -17.1945   -12.1181     7.6249 Any
   921 O921     -15.6439    -6.7713    -8.0453 Any
   922 H922     -15.0873    -6.0195    -7.8905 Any
   923 H923     -15.0651    -7.5176    -7.9622 Any
   924 O924      -6.0694    18.0601    15.1567 Any
   925 H925      -6.8031    17.6124    14.7565 Any
   926 H926      -6.1039    18.9387    14.8021 Any
   927 O927     -12.2676    17.8507   -18.0166 Any
   928 H928     -11.4389    18.2115   -18.3030 Any
   929 H929     -12.6190    18.5019   -17.4237 Any
   930 O930      -4.2801    -9.1902    18.5697 Any
   931 H931      -3.6354    -9.5265    17.9613 Any
   932 H932      -4.9522    -8.8106    18.0192 Any
   933 O933      14.4513    18.4820     3.2354 Any
   934 H934      14.1797    17.8612     2.5723 Any
   935 H935      13.8705    19.2226     3.1209 Any
   936 O936       3.2902    -6.4530     3.0996 Any
   937 H937       3.9093    -7.1226     3.3591 Any
   938 H938       2.7430    -6.3253     3.8632 Any
   939 O939     -18.7225    15.5980    18.1603 Any
   940 H940     -19.5764    16.0099    18.1505 Any
   941 H941     -18.1214    16.3002    18.3716 Any
   942 O942     -11.4705     6.5553    10.4930 Any
   943 H943     -10.9573     5.9972    11.0622 Any
   944 H944     -12.1998     6.0134    10.2220 Any
   945 O945       0.5162     6.3483   -15.8912 Any
   946 H946       0.2862     5.4285   -15.8967 Any
   947 H947       0.6670     6.5619   -16.8026 Any
   948 O948     -18.6056   -13.4053     4.9993 Any
   949 H949     -19.2175   -14.1283     5.0421 Any
   950 H950     -19.0221   -12.7109     5.4926 Any
   951 O951      -4.8497    -4.9652    17.4556 Any
   952 H952      -4.2975    -4.1956    17.4142 Any
   953 H953      -4.4612    -5.5011    18.1345 Any
   954 O954      13.5029    20.1514     8.9036 Any
   955 H955      14.1531    20.5759     8.3595 Any
   956 H956      13.7084    19.2278     8.8441 Any
   957 O957      -5.6186    -2.0923   -15.3054 Any
   958 H958      -5.8778    -2.4540   -14.4682 Any
   959 H959      -6.4361    -1.9088   -15.7493 Any
   960 O960     -12.6049   -13.0575    -1.1542 Any
   961 H961     -13.2999   -12.4138    -1.1155 Any
   962 H962     -12.3219   -13.1574    -0.2549 Any
   963 O963      -1.3981    13.0799     9.4524 Any
   964 H964      -2.0918    13.3599    10.0349 Any
   965 H965      -0.7019    12.7959    10.0299 Any
   966 O966      11.3834    13.4214     7.5633 Any
   967 H967      10.5001    13.5792     7.8697 Any
   968 H968      11.9190    14.0282     8.0572 Any
   969 O969       9.5979     6.0654   -14.1096 Any
   970 H970       8.6519     6.0480   -14.0490 Any
   971 H971       9.8325     5.2031   -14.4263 Any
   972 O972      -0.7120     4.6937     7.2902 Any
   973 H973      -1.2660     5.3742     6.9313 Any
   974 H974      -0.2156     5.1256     7.9728 Any
   975 O975     -10.6125    13.0949    -9.7967 Any
   976 H976     -11.1464    12.5234   -10.3327 Any
   977 H977      -9.7201    12.8756   -10.0300 Any
   978 O978      -5.0964    10.3729   -11.0345 Any
   979 H979      -4.2920    10.0308   -11.4016 Any
   980 H980      -5.4270    10.9662   -11.6959 Any
   981 O981       0.5727    -9.6913    11.0521 Any
   982 H982       1.3755    -9.8864    10.5870 Any
   983 H983       0.8123    -9.0097    11.6660 Any
   984 O984     -18.2192    11.1423    11.7972 Any
   985 H985     -18.0309    10.3749    11.2733 Any
   986 H986     -17.6414    11.0679    12.5453 Any
   987 O987       5.2229     3.1457    18.0133 Any
   988 H988       5.9984     2.7682    17.6196 Any
   989 H989       4.5129     2.8800    17.4438 Any
   990 O990      17.6174    -1.3393   -11.2756 Any
   991 H991      18.2343    -1.8724   -11.7595 Any
   992 H992      16.8313    -1.8673   -11.2287 Any
   993 O993      12.6586    11.5001   -20.2964 Any
   994 H994      12.4910    12.3377   -19.8850 Any
   995 H995      12.6661    10.8796   -19.5796 Any
   996 O996     -11.1484    19.5567     8.6735 Any
   997 H997     -11.5553    18.8020     9.0781 Any
   998 H998     -11.2222    20.2440     9.3225 Any
   999 O999      -7.5252   -18.7812    -1.7256 Any
  1000 H1000     -8.2967   -19.1235    -1.2938 Any
  1001 H1001     -7.7563   -17.8913    -1.9568 Any
  1002 O1002      4.2865    -4.2340    15.3094 Any
  1003 H1003      5.1678    -4.5558    15.1725 Any
  1004 H1004      3.7887    -5.0011    15.5598 Any
  1005 O1005    -17.5035    -2.5745    18.1171 Any
  1006 H1006    -16.7029    -3.0418    17.9185 Any
  1007 H1007    -17.8349    -2.9918    18.9013 Any
  1008 O1008      5.6372   -10.1654     0.4723 Any
  1009 H1009      4.7369    -9.8753     0.4072 Any
  1010 H1010      5.7330   -10.8034    -0.2224 Any
  1011 O1011    -18.8576     8.3506    -4.6347 Any
  1012 H1012    -19.7614     8.2726    -4.9102 Any
  1013 H1013    -18.4786     8.9790    -5.2350 Any
  1014 O1014      2.7680    15.9862    -7.3957 Any
  1015 H1015      3.5925    15.5487    -7.2295 Any
  1016 H1016      2.8740    16.3775    -8.2527 Any
  1017 O1017      5.3492     0.5782     1.0896 Any
  1018 H1018      4.9446    -0.0357     0.4910 Any
  1019 H1019      6.1953     0.7644     0.7045 Any
  1020 O1020     11.3467    -8.4156     1.9974 Any
  1021 H1021     11.7801    -7.6638     1.6157 Any
  1022 H1022     11.8933    -9.1526     1.7588 Any
  1023 O1023     13.9805    13.5695   -17.5521 Any
  1024 H1024     14.7320    13.9996   -17.1658 Any
  1025 H1025     13.9674    12.7091   -17.1540 Any
  1026 O1026     -0.4076    19.4010     2.6836 Any
  1027 H1027     -0.2645    19.4914     3.6165 Any
  1028 H1028     -0.5744    18.4764     2.5564 Any
  1029 O1029    -10.8288   -11.8425     3.2403 Any
  1030 H1030    -11.6329   -11.9883     3.7211 Any
  1031 H1031    -10.4421   -11.0790     3.6482 Any
  1032 O1032      0.8310     5.3037     3.0254 Any
  1033 H1033      1.3595     5.9538     3.4691 Any
  1034 H1034      1.4499     4.6400     2.7511 Any
  1035 O1035     -8.9792    -0.0317    -2.3548 Any
  1036 H1036     -9.2078    -0.9415    -2.4921 Any
  1037 H1037     -8.9928     0.0782    -1.4132 Any
  1038 O1038      8.8758    -8.0150     4.3447 Any
  1039 H1039      8.1830    -8.2686     3.7492 Any
  1040 H1040      9.6105    -7.8093     3.7820 Any
  1041 O1041    -13.5766     1.0493     8.1591 Any
  1042 H1042    -13.4331     1.9697     7.9827 Any
  1043 H1043    -13.9195     1.0265     9.0428 Any
  1044 O1044      6.4782   -10.3983     5.9889 Any
  1045 H1045      6.4310    -9.4543     6.0626 Any
  1046 H1046      6.5399   -10.5620     5.0570 Any
  1047 O1047    -18.9793   -11.3968     8.3071 Any
  1048 H1048    -19.4625   -11.1769     7.5216 Any
  1049 H1049    -18.6525   -10.5660     8.6264 Any
  1050 O1050    -10.3727   -11.9636    10.6373 Any
  1051 H1051    -10.5271   -12.3902    11.4698 Any
  1052 H1052    -10.3483   -11.0387    10.8442 Any
  1053 O1053    -19.0046    -5.3344    10.9873 Any
  1054 H1054    -18.4010    -5.6809    10.3434 Any
  1055 H1055    -19.4460    -4.6232    10.5420 Any
  1056 O1056     -5.5819   -18.1596   -12.8848 Any
  1057 H1057     -5.4658   -17.5218   -13.5766 Any
  1058 H1058     -5.2912   -18.9785   -13.2642 Any
  1059 O1059      7.0196   -15.8210   -15.6399 Any
  1060 H1060      6.1906   -15.4914   -15.9610 Any
  1061 H1061      7.6484   -15.5735   -16.3048 Any
  1062 O1062      1.6811    -5.8409    -7.9071 Any
  1063 H1063      1.3001    -6.6332    -8.2621 Any
  1064 H1064      2.3130    -6.1452    -7.2691 Any
  1065 O1065      1.9362     5.9671     0.4663 Any
  1066 H1066      1.4305     6.7649     0.3853 Any
  1067 H1067      2.0131     5.8273     1.4009 Any
  1068 O1068     -7.4812    17.5548    19.7096 Any
  1069 H1069     -7.0900    18.1764    19.1101 Any
  1070 H1070     -6.7475    17.1873    20.1845 Any
  1071 O1071      4.6696   -19.9261     9.7331 Any
  1072 H1072      5.5033   -19.8309    10.1744 Any
  1073 H1073      4.0235   -19.8251    10.4195 Any
  1074 O1074     19.2878   -14.4324   -18.7854 Any
  1075 H1075     19.1869   -15.1255   -19.4243 Any
  1076 H1076     19.6334   -13.7008   -19.2797 Any
  1077 O1077     -9.2457    -8.8674    -2.3386 Any
  1078 H1078     -9.2012    -9.7134    -1.9129 Any
  1079 H1079     -8.4091    -8.7759    -2.7753 Any
  1080 O1080     20.1211     7.7004    11.0184 Any
  1081 H1081     19.5152     6.9787    11.1227 Any
  1082 H1082     19.7337     8.4104    11.5130 Any
  1083 O1083    -10.8856    19.4707    13.2317 Any
  1084 H1084     -9.9760    19.7125    13.1179 Any
  1085 H1085    -10.8809    18.8582    13.9554 Any
  1086 O1086     -6.2712   -16.9600    10.8888 Any
  1087 H1087     -5.5585   -17.3326    10.3867 Any
  1088 H1088     -5.9268   -16.8801    11.7685 Any
  1089 O1089      9.3146     3.7198     0.4869 Any
  1090 H1090      9.8143     3.3179     1.1852 Any
  1091 H1091      9.9300     3.8028    -0.2295 Any
  1092 O1092     11.5040    -0.6605     6.5812 Any
  1093 H1093     11.9429    -0.2318     7.3041 Any
  1094 H1094     11.3704    -1.5510     6.8777 Any
  1095 O1095      9.3332   -16.5335    13.0536 Any
  1096 H1096      8.5369   -16.2652    13.4926 Any
  1097 H1097      9.9202   -15.7956    13.1524 Any
  1098 O1098      9.6473    -2.3100   -17.6581 Any
  1099 H1099      8.9022    -2.2713   -17.0731 Any
  1100 H1100      9.3800    -1.8099   -18.4180 Any
  1101 O1101     14.2531    -0.2858     5.4455 Any
  1102 H1102     14.1541    -0.7798     6.2487 Any
  1103 H1103     14.5622    -0.9200     4.8121 Any
  1104 O1104     20.1608     7.8213   -12.6420 Any
  1105 H1105     19.7770     8.6872   -12.6854 Any
  1106 H1106     19.4320     7.2303   -12.7775 Any
  1107 O1107      1.8287    -8.5013    15.9274 Any
  1108 H1108      1.0564    -8.5120    15.3775 Any
  1109 H1109      2.0135    -9.4157    16.0967 Any
  1110 O1110    -14.7360     0.7842    10.7300 Any
  1111 H1111    -14.7693     0.0652    11.3471 Any
  1112 H1112    -14.1699     1.4246    11.1403 Any
  1113 O1113    -13.3979    -0.0697     1.4759 Any
  1114 H1114    -12.7766    -0.6046     1.9520 Any
  1115 H1115    -13.5102     0.7023     2.0148 Any
  1116 O1116    -16.5936   -17.9952    -4.9694 Any
  1117 H1117    -17.5097   -17.7629    -4.8936 Any
  1118 H1118    -16.5804   -18.9404    -4.8956 Any
  1119 O1119     18.1963     6.2943    15.5073 Any
  1120 H1120     19.0685     5.9305    15.5839 Any
  1121 H1121     17.9008     6.3958    16.4024 Any
  1122 O1122     -6.1771   -10.7445    -0.9617 Any
  1123 H1123     -5.5093   -10.4527    -1.5682 Any
  1124 H1124     -6.2838   -11.6675    -1.1504 Any
  1125 O1125      6.4668     6.3102    13.4339 Any
  1126 H1126      6.1709     6.0080    14.2824 Any
  1127 H1127      6.1267     7.1923    13.3630 Any
  1128 O1128      8.4177   -19.8190    -8.5248 Any
  1129 H1129      8.4655   -19.3750    -9.3612 Any
  1130 H1130      9.0111   -20.5534    -8.6103 Any
  1131 O1131      3.2488    17.4349    -0.0785 Any
  1132 H1132      3.7526    18.2182    -0.2560 Any
  1133 H1133      3.2692    16.9487    -0.8922 Any
  1134 O1134    -19.4565   -17.3893    10.4460 Any
  1135 H1135    -19.2317   -16.6003     9.9709 Any
  1136 H1136    -18.9978   -17.3094    11.2718 Any
  1137 O1137     -3.5643   -11.5771    -8.4339 Any
  1138 H1138     -4.0899   -11.9461    -9.1313 Any
  1139 H1139     -3.5098   -12.2668    -7.7857 Any
  1140 O1140     -2.0863     5.5417   -13.3296 Any
  1141 H1141     -2.8565     6.0800   -13.4564 Any
  1142 H1142     -1.8745     5.2206   -14.1961 Any
  1143 O1143      5.9476    18.2470    -0.3957 Any
  1144 H1144      6.3254    18.9056     0.1721 Any
  1145 H1145      6.4342    18.3230    -1.2059 Any
  1146 O1146      6.0927    -1.0909    -3.3665 Any
  1147 H1147      6.7625    -1.4920    -2.8286 Any
  1148 H1148      6.5151    -0.3322    -3.7470 Any
  1149 O1149    -10.3998    16.6385    14.3210 Any
  1150 H1150    -10.7452    15.9615    13.7542 Any
  1151 H1151    -10.7906    16.4638    15.1669 Any
  1152 O1152      2.6130   -15.9118    17.9478 Any
  1153 H1153      2.2195   -15.3587    17.2859 Any
  1154 H1154      3.1306   -16.5377    17.4587 Any
  1155 O1155    -18.0980    15.2137     7.5931 Any
  1156 H1156    -18.6397    15.0111     6.8418 Any
  1157 H1157    -17.9077    14.3712     7.9841 Any
  1158 O1158      3.7880   -15.2728    12.7261 Any
  1159 H1159      4.2795   -15.2396    13.5362 Any
  1160 H1160      3.7828   -16.1905    12.4878 Any
  1161 O1161     -2.8195    -1.5301    -2.2008 Any
  1162 H1162     -2.8533    -1.1058    -3.0479 Any
  1163 H1163     -3.1134    -2.4163    -2.3661 Any
  1164 O1164      2.0129    -2.3004    16.3891 Any
  1165 H1165      1.1037    -2.2103    16.1357 Any
  1166 H1166      2.2458    -3.1827    16.1319 Any
  1167 O1167     -9.0697     1.3365    18.7671 Any
  1168 H1168     -9.9653     1.6237    18.8869 Any
  1169 H1169     -8.8480     1.6077    17.8861 Any
  1170 O1170      6.9253     6.6607   -16.9271 Any
  1171 H1171      7.8112     6.9962   -16.8872 Any
  1172 H1172      6.5380     6.9109   -16.0987 Any
  1173 O1173     18.5120    -8.9582   -18.0268 Any
  1174 H1174     17.6368    -8.7856   -17.7055 Any
  1175 H1175     19.0851    -8.5942   -17.3650 Any
  1176 O1176     -4.9851     1.1530     6.5291 Any
  1177 H1177     -4.4777     1.5262     7.2377 Any
  1178 H1178     -5.3818     0.3771     6.9027 Any
  1179 O1179      9.9047    19.3949   -13.0135 Any
  1180 H1180      9.5374    18.5952   -13.3665 Any
  1181 H1181     10.5877    19.1036   -12.4239 Any
  1182 O1182     -9.9949    -9.3864    11.6069 Any
  1183 H1183     -9.1565    -9.0361    11.8774 Any
  1184 H1184    -10.4295    -8.6608    11.1785 Any
  1185 O1185      4.2252     4.0190   -17.1072 Any
  1186 H1186      3.9748     4.9333   -17.1208 Any
  1187 H1187      4.9256     3.9540   -17.7429 Any
  1188 O1188      8.6528   -18.7983    -6.0207 Any
  1189 H1189      8.7921   -17.8854    -6.2355 Any
  1190 H1190      8.6500   -19.2426    -6.8582 Any
  1191 O1191      7.4293     8.4956    -9.2687 Any
  1192 H1192      7.4550     7.5766    -9.0369 Any
  1193 H1193      8.2635     8.6590    -9.6886 Any
  1194 O1194    -11.0894     1.7743   -18.7443 Any
  1195 H1195    -11.0746     2.1495   -19.6149 Any
  1196 H1196    -10.6380     2.4088   -18.2034 Any
  1197 O1197     -6.8547    11.0214   -16.9274 Any
  1198 H1198     -6.0654    11.2370   -17.4064 Any
  1199 H1199     -6.5469    10.5776   -16.1481 Any
  1200 O1200     -1.6678    -2.4349   -15.6999 Any
  1201 H1201     -1.5863    -1.7509   -16.3513 Any
  1202 H1202     -1.4584    -3.2338   -16.1654 Any
  1203 O1203    -18.1326    -3.9825    13.1303 Any
  1204 H1204    -17.5899    -4.6884    13.4561 Any
  1205 H1205    -18.8170    -4.4158    12.6376 Any
  1206 O1206     14.5952   -10.8673    17.3246 Any
  1207 H1207     15.1198   -10.1660    16.9614 Any
  1208 H1208     14.9523   -11.6565    16.9391 Any
  1209 O1209      9.6512    17.7668   -18.1336 Any
  1210 H1210      9.0683    18.5073   -18.2371 Any
  1211 H1211     10.2228    17.8058   -18.8890 Any
  1212 O1212    -10.6221    -4.9523    -2.2242 Any
  1213 H1213    -10.9880    -5.7755    -1.9285 Any
  1214 H1214    -11.3577    -4.4846    -2.5969 Any
  1215 O1215     19.0428     9.1885     1.0852 Any
  1216 H1216     18.7430     9.0517     1.9742 Any
  1217 H1217     19.8846     8.7538     1.0479 Any
  1218 O1218     -8.3860    19.5403    -6.3885 Any
  1219 H1219     -8.1121    18.6771    -6.1077 Any
  1220 H1220     -7.7405    19.7972    -7.0336 Any
  1221 O1221      7.8329     1.2529     0.1180 Any
  1222 H1222      8.3273     1.9032     0.5993 Any
  1223 H1223      8.4727     0.5952    -0.1205 Any
  1224 O1224     -7.8855    -2.1369     1.8241 Any
  1225 H1225     -7.2766    -2.4851     1.1862 Any
  1226 H1226     -8.3875    -1.4899     1.3462 Any
  1227 O1227     18.7256     6.7491    -5.6693 Any
  1228 H1228     19.1669     5.9561    -5.9437 Any
  1229 H1229     18.8880     7.3670    -6.3698 Any
  1230 O1230     -6.3269     3.9825     2.3125 Any
  1231 H1231     -6.0901     4.4692     1.5342 Any
  1232 H1232     -6.0703     3.0897     2.1228 Any
  1233 O1233    -10.3209   -18.6103    19.8040 Any
  1234 H1234     -9.9449   -19.4564    20.0077 Any
  1235 H1235    -10.9000   -18.7766    19.0720 Any
  1236 O1236      0.1970   -11.1886     7.7075 Any
  1237 H1237     -0.1129   -11.8906     7.1507 Any
  1238 H1238      1.0639   -11.4624     7.9765 Any
  1239 O1239     16.6209    -0.7547   -14.0731 Any
  1240 H1240     17.2818    -0.3943   -13.4967 Any
  1241 H1241     17.0171    -1.5389   -14.4294 Any
  1242 O1242    -19.3447    -3.7920    -6.2974 Any
  1243 H1243    -19.5944    -4.6125    -5.8934 Any
  1244 H1244    -20.1371    -3.2716    -6.2901 Any
  1245 O1245     -1.3788     1.9746    -3.6097 Any
  1246 H1246     -1.1271     2.8200    -3.9573 Any
  1247 H1247     -1.9365     2.1772    -2.8702 Any
  1248 O1248      0.4270     2.7586    -8.9342 Any
  1249 H1249     -0.3574     2.3485    -8.5943 Any
  1250 H1250      0.7320     2.1670    -9.6093 Any
  1251 O1251      0.0908     0.4871   -10.8929 Any
  1252 H1252     -0.5445     0.3772   -10.1977 Any
  1253 H1253      0.5874    -0.3205   -10.8919 Any
  1254 O1254    -14.4099    12.5222   -13.9181 Any
  1255 H1255    -14.3051    12.8794   -13.0461 Any
  1256 H1256    -15.3419    12.5704   -14.0851 Any
  1257 O1257     -3.9494     4.1476     8.4309 Any
  1258 H1258     -4.0079     4.5962     9.2641 Any
  1259 H1259     -4.0732     4.8293     7.7837 Any
  1260 O1260      6.7246   -13.3889   -19.4123 Any
  1261 H1261      6.1472   -12.9214   -18.8234 Any
  1262 H1262      6.5487   -13.0151   -20.2656 Any
  1263 O1263     15.0549   -14.5578    -2.2336 Any
  1264 H1264     15.7102   -13.8986    -2.4207 Any
  1265 H1265     14.4786   -14.5414    -2.9863 Any
  1266 O1266     -5.7444   -18.3904     6.4271 Any
  1267 H1267     -5.4512   -18.9731     5.7390 Any
  1268 H1268     -5.1623   -17.6441     6.3717 Any
  1269 O1269     -7.7322    -4.2497     9.8983 Any
  1270 H1270     -8.6746    -4.2967     9.9911 Any
  1271 H1271     -7.4423    -3.7578    10.6553 Any
  1272 O1272     15.2779   -16.2724    15.4109 Any
  1273 H1273     14.6995   -16.9637    15.7048 Any
  1274 H1274     15.8944   -16.1587    16.1222 Any
  1275 O1275    -11.7671     4.5268    -6.0701 Any
  1276 H1276    -12.1357     5.2101    -6.6144 Any
  1277 H1277    -12.2066     4.6235    -5.2357 Any
  1278 O1278     13.5553    13.7303     0.2736 Any
  1279 H1279     14.0467    12.9555     0.5129 Any
  1280 H1280     13.7238    14.3455     0.9750 Any
  1281 O1281    -17.0840    11.3664    14.3416 Any
  1282 H1282    -17.0950    10.5303    14.7884 Any
  1283 H1283    -17.4352    11.9794    14.9739 Any
  1284 O1284     14.5931    12.2697    10.0521 Any
  1285 H1285     14.8675    12.9301    10.6745 Any
  1286 H1286     13.9153    12.6911     9.5405 Any
  1287 O1287      9.4822    -9.5075    -8.4195 Any
  1288 H1288      9.4754   -10.2004    -7.7725 Any
  1289 H1289      9.9051    -9.8917    -9.1761 Any
  1290 O1290     -6.8707   -17.2614    -6.9651 Any
  1291 H1291     -6.3463   -17.2187    -6.1764 Any
  1292 H1292     -6.5644   -18.0388    -7.4133 Any
  1293 O1293     -0.7738     9.7221    10.2749 Any
  1294 H1294     -0.0582     9.3864     9.7513 Any
  1295 H1295     -1.5116     9.7506     9.6802 Any
  1296 O1296     19.7260     3.5786     3.4619 Any
  1297 H1297     18.8437     3.6414     3.8031 Any
  1298 H1298     19.9493     2.6610     3.5458 Any
  1299 O1299     -9.1799    16.5881    17.8104 Any
  1300 H1300     -9.3071    15.7303    17.4272 Any
  1301 H1301     -8.4324    16.4844    18.3843 Any
  1302 O1302     11.9723    -2.0295     3.9639 Any
  1303 H1303     11.5977    -2.7968     4.3759 Any
  1304 H1304     12.1154    -1.4217     4.6774 Any
  1305 O1305     -4.6863    15.6025    13.8895 Any
  1306 H1306     -4.3136    16.3813    14.2814 Any
  1307 H1307     -5.6131    15.7901    13.8211 Any
  1308 O1308     -6.1503   -10.6327   -10.6881 Any
  1309 H1309     -5.7490   -10.2304    -9.9292 Any
  1310 H1310     -5.4619   -10.6525   -11.3397 Any
  1311 O1311      5.1878    -4.2636    11.6371 Any
  1312 H1312      5.0879    -5.2062    11.6182 Any
  1313 H1313      5.6400    -4.0880    12.4518 Any
  1314 O1314      6.6572   -10.1817   -13.9800 Any
  1315 H1315      6.9410   -10.8937   -14.5380 Any
  1316 H1316      5.8110   -10.4575   -13.6533 Any
  1317 O1317     -8.7634    -0.6970   -13.6597 Any
  1318 H1318     -8.9245    -1.6051   -13.4399 Any
  1319 H1319     -9.1414    -0.2072   -12.9413 Any
  1320 O1320      6.8276    19.0904   -14.0554 Any
  1321 H1321      6.4233    18.2858   -14.3521 Any
  1322 H1322      7.7254    19.0304   -14.3542 Any
  1323 O1323     -8.6441     5.2877     1.3434 Any
  1324 H1324     -7.9158     4.8633     1.7775 Any
  1325 H1325     -8.3250     6.1562     1.1364 Any
  1326 O1326     -2.9181   -19.8936   -13.6287 Any
  1327 H1327     -2.7937   -19.4528   -12.7985 Any
  1328 H1328     -2.5433   -19.3045   -14.2700 Any
  1329 O1329    -13.7215     6.8518    -7.1181 Any
  1330 H1330    -14.4754     7.2116    -6.6696 Any
  1331 H1331    -13.8281     7.1242    -8.0199 Any
  1332 O1332     11.0151    -4.6694    18.4306 Any
  1333 H1333     11.3278    -5.0152    19.2561 Any
  1334 H1334     10.4394    -3.9563    18.6735 Any
  1335 O1335    -19.5798   -10.1931     3.2958 Any
  1336 H1336    -18.9308   -10.1141     3.9824 Any
  1337 H1337    -19.2771   -10.9171     2.7637 Any
  1338 O1338    -18.9807     3.6152     6.4901 Any
  1339 H1339    -19.3752     4.3463     6.0333 Any
  1340 H1340    -18.4598     3.1753     5.8313 Any
  1341 O1341      3.5288    10.1405    18.5764 Any
  1342 H1342      3.5215    11.0809    18.4557 Any
  1343 H1343      4.4338     9.8903    18.4449 Any
  1344 O1344    -15.9083   -13.7747     5.1847 Any
  1345 H1345    -16.7679   -13.7409     4.7861 Any
  1346 H1346    -15.9904   -13.2547     5.9732 Any
  1347 O1347    -14.2678   -13.2807     9.1795 Any
  1348 H1348    -14.0969   -12.3899     9.4554 Any
  1349 H1349    -14.9102   -13.1969     8.4873 Any
  1350 O1350     -3.3906    19.1914     6.0327 Any
  1351 H1351     -3.4147    19.8630     5.3640 Any
  1352 H1352     -4.0988    18.6033     5.8058 Any
  1353 O1353     -7.4333    -0.3469   -19.7662 Any
  1354 H1354     -8.1862    -0.7706   -19.3757 Any
  1355 H1355     -7.7900     0.4106   -20.2110 Any
  1356 O1356      6.5065     2.5265     2.7458 Any
  1357 H1357      7.3347     2.0658     2.7182 Any
  1358 H1358      5.9429     2.0393     2.1594 Any
  1359 O1359    -11.7737     3.9285   -15.6095 Any
  1360 H1360    -11.1536     3.2606   -15.3482 Any
  1361 H1361    -12.1317     3.6140   -16.4291 Any
  1362 O1362      4.4082    13.5067     1.5978 Any
  1363 H1363      5.3182    13.4829     1.3329 Any
  1364 H1364      4.4249    13.8613     2.4770 Any
  1365 O1365      4.7472   -14.6523   -16.7543 Any
  1366 H1366      4.3024   -14.3722   -17.5433 Any
  1367 H1367      4.7206   -13.8955   -16.1840 Any
  1368 O1368      5.7495     9.8791   -11.7340 Any
  1369 H1369      5.6005    10.7520   -12.0726 Any
  1370 H1370      6.6844     9.8385   -11.5821 Any
  1371 O1371     10.8315    -2.7775    -8.8194 Any
  1372 H1372     11.4409    -2.1437    -8.4648 Any
  1373 H1373     10.6242    -3.3441    -8.0880 Any
  1374 O1374     13.6478     1.3248   -12.9209 Any
  1375 H1375     13.5142     0.3864   -12.9428 Any
  1376 H1376     12.9724     1.6483   -12.3394 Any
  1377 O1377      1.6631   -19.7793    18.7704 Any
  1378 H1378      0.9371   -19.3480    19.2012 Any
  1379 H1379      2.3499   -19.8001    19.4237 Any
  1380 O1380     16.6245    14.7755    19.8406 Any
  1381 H1381     17.1293    13.9770    19.7599 Any
  1382 H1382     16.4793    15.0571    18.9470 Any
  1383 O1383      4.4118    -2.3758     2.2640 Any
  1384 H1384      3.7687    -2.3544     2.9603 Any
  1385 H1385      3.9299    -2.1266     1.4865 Any
  1386 O1386      6.6642   -18.5233    15.3505 Any
  1387 H1387      7.5016   -18.2512    15.7021 Any
  1388 H1388      6.5334   -19.3968    15.6951 Any
  1389 O1389    -12.5644    -0.8130    -1.2739 Any
  1390 H1390    -12.3446     0.0723    -1.5324 Any
  1391 H1391    -12.7669    -0.7483    -0.3500 Any
  1392 O1392    -17.4587   -16.1924     0.8393 Any
  1393 H1393    -16.8556   -15.4871     1.0331 Any
  1394 H1394    -17.4164   -16.2902    -0.1028 Any
  1395 O1395    -15.7230    -4.6336    -1.2505 Any
  1396 H1396    -16.4262    -4.8480    -1.8491 Any
  1397 H1397    -15.1777    -4.0250    -1.7312 Any
  1398 O1398     -8.9815    -3.0326   -18.5777 Any
  1399 H1399     -8.6666    -2.6618   -17.7639 Any
  1400 H1400     -8.1968    -3.3019   -19.0366 Any
  1401 O1401     -1.3499    11.3996    -1.0217 Any
  1402 H1402     -0.8455    11.9302    -0.4193 Any
  1403 H1403     -2.1589    11.2195    -0.5612 Any
  1404 O1404      8.1194    11.5946     3.4319 Any
  1405 H1405      8.5265    10.7390     3.4670 Any
  1406 H1406      8.3287    11.9927     4.2665 Any
  1407 O1407    -14.1640    16.1164   -14.5466 Any
  1408 H1408    -15.1061    16.1969   -14.4774 Any
  1409 H1409    -14.0289    15.4920   -15.2472 Any
  1410 O1410    -18.9791    13.7114     0.5605 Any
  1411 H1411    -19.8452    14.0921     0.4992 Any
  1412 H1412    -19.1344    12.7882     0.7102 Any
  1413 O1413      2.6861     4.5459     8.5937 Any
  1414 H1414      2.4242     3.6384     8.5122 Any
  1415 H1415      1.9377     4.9758     8.9862 Any
  1416 O1416     -2.5450    11.1172     5.5739 Any
  1417 H1417     -2.6646    11.9546     6.0022 Any
  1418 H1418     -3.4183    10.7529     5.5143 Any
  1419 O1419      4.3526   -15.1013   -19.6183 Any
  1420 H1420      3.8037   -15.4674   -20.2992 Any
  1421 H1421      5.2286   -15.1236   -19.9804 Any
  1422 O1422    -11.3774    17.5620    19.2283 Any
  1423 H1423    -11.1075    17.6236    20.1351 Any
  1424 H1424    -10.5928    17.3039    18.7630 Any
  1425 O1425     -8.9673     0.3161     8.4931 Any
  1426 H1426     -9.8161     0.0082     8.2039 Any
  1427 H1427     -8.9241     1.2141     8.1920 Any
  1428 O1428     -0.3852     8.0010   -14.0241 Any
  1429 H1429      0.0358     7.4469   -14.6680 Any
  1430 H1430     -0.8196     7.3965   -13.4369 Any
  1431 O1431      7.0443     2.1523    -9.6279 Any
  1432 H1432      7.6648     1.4893    -9.9008 Any
  1433 H1433      6.2718     1.9860   -10.1518 Any
  1434 O1434      4.9855    15.9642   -10.3831 Any
  1435 H1435      4.0521    15.7993   -10.4036 Any
  1436 H1436      5.0768    16.8565   -10.6904 Any
  1437 O1437    -16.4908     1.3835    -1.0345 Any
  1438 H1438    -17.2241     1.2217    -0.4558 Any
  1439 H1439    -16.1897     0.5201    -1.2851 Any
  1440 O1440      1.0034     2.8535     5.9749 Any
  1441 H1441      0.4253     3.5353     6.2910 Any
  1442 H1442      1.1044     2.2658     6.7121 Any
  1443 O1443     -0.3175    11.3271    12.1882 Any
  1444 H1444     -0.5415    10.6843    11.5283 Any
  1445 H1445      0.4938    11.0109    12.5633 Any
  1446 O1446    -18.2218     7.6269    -7.7959 Any
  1447 H1447    -18.5997     8.4962    -7.8156 Any
  1448 H1448    -18.8258     7.0929    -8.2948 Any
  1449 O1449     10.3172     4.7832    16.5078 Any
  1450 H1450     10.5991     5.6389    16.8030 Any
  1451 H1451     10.6860     4.6973    15.6385 Any
  1452 O1452      2.2619    18.4251    16.8615 Any
  1453 H1453      2.0518    19.2432    17.2922 Any
  1454 H1454      2.7320    18.6814    16.0791 Any
  1455 O1455     18.3546   -17.6896     0.4712 Any
  1456 H1456     18.0556   -18.3897     1.0364 Any
  1457 H1457     18.7299   -18.1322    -0.2785 Any
  1458 O1458      7.9433    -7.7218    -4.2448 Any
  1459 H1459      8.0737    -8.5909    -3.8891 Any
  1460 H1460      7.4268    -7.8596    -5.0279 Any
  1461 O1461     17.4010     2.1112     0.7841 Any
  1462 H1462     16.8833     2.9010     0.8681 Any
  1463 H1463     17.2538     1.6422     1.5948 Any
  1464 O1464    -11.3379   -15.0626   -16.1819 Any
  1465 H1465    -11.9689   -14.4420   -16.5219 Any
  1466 H1466    -11.3588   -15.7846   -16.7961 Any
  1467 O1467     -0.8148    14.7291     5.6647 Any
  1468 H1468      0.0181    15.1121     5.9063 Any
  1469 H1469     -0.8115    14.7294     4.7166 Any
  1470 O1470     -0.6665     6.0291    15.7764 Any
  1471 H1471     -0.5699     6.0005    14.8336 Any
  1472 H1472     -1.5687     5.7822    15.9312 Any
  1473 O1473      8.4812    18.0139    12.8726 Any
  1474 H1474      8.5896    18.9497    12.9795 Any
  1475 H1475      7.6254    17.8299    13.2367 Any
  1476 O1476      1.6987   -12.3082    -0.4120 Any
  1477 H1477      0.7945   -12.0372    -0.5017 Any
  1478 H1478      2.1738   -11.5037    -0.2509 Any
  1479 O1479     -7.5029     4.2971     9.9595 Any
  1480 H1480     -7.3234     5.1949    10.2060 Any
  1481 H1481     -7.0746     3.7766    10.6262 Any
  1482 O1482     -5.0470    16.2902     4.8329 Any
  1483 H1483     -5.7469    15.6953     4.5982 Any
  1484 H1484     -4.4112    15.7462     5.2789 Any
  1485 O1485     18.5255    -4.4124    18.3651 Any
  1486 H1486     19.3195    -4.5170    18.8725 Any
  1487 H1487     18.8169    -4.0530    17.5376 Any
  1488 O1488     17.7787    11.8787   -12.1497 Any
  1489 H1489     17.3363    12.6783   -12.4025 Any
  1490 H1490     17.4158    11.6636   -11.3007 Any
  1491 O1491     17.6321     7.9304    -1.2130 Any
  1492 H1492     18.3830     8.3140    -1.6466 Any
  1493 H1493     17.8099     8.0387    -0.2880 Any
  1494 O1494    -16.9335     2.4125    -3.6006 Any
  1495 H1495    -16.3487     2.1805    -4.3099 Any
  1496 H1496    -16.5916     1.9481    -2.8481 Any
  1497 O1497     -2.6431    15.7148     1.4019 Any
  1498 H1498     -2.4177    15.0219     2.0084 Any
  1499 H1499     -1.8595    15.8421     0.8834 Any
  1500 O1500     -0.4385    18.4435   -15.7343 Any
  1501 H1501     -0.9149    18.0211   -15.0318 Any
  1502 H1502      0.1850    19.0065   -15.2949 Any
  1503 O1503      8.6978    14.1781    -7.9410 Any
  1504 H1504      8.2051    14.9508    -8.1841 Any
  1505 H1505      8.6262    13.6037    -8.6919 Any
  1506 O1506     -9.3763    18.6908     1.1675 Any
  1507 H1507     -9.0983    19.1295     0.3744 Any
  1508 H1508     -9.4965    17.7863     0.9101 Any
  1509 O1509     -3.4133    -1.6003    -8.8357 Any
  1510 H1510     -3.5711    -2.0316    -9.6652 Any
  1511 H1511     -4.1284    -1.8819    -8.2806 Any
  1512 O1512    -13.8672    -8.4258     5.3994 Any
  1513 H1513    -13.8575    -9.0055     4.6492 Any
  1514 H1514    -14.2917    -7.6379     5.0864 Any
  1515 O1515    -18.6600    20.3260    17.8117 Any
  1516 H1516    -18.8542    20.0174    18.6869 Any
  1517 H1517    -18.9641    19.6324    17.2413 Any
  1518 O1518     -6.2454     3.9708    -9.1131 Any
  1519 H1519     -5.8453     3.1143    -9.0410 Any
  1520 H1520     -5.5265     4.5532    -9.3205 Any
  1521 O1521     12.6746     9.5054   -18.4105 Any
  1522 H1522     13.6181     9.5288   -18.3194 Any
  1523 H1523     12.3669     9.1122   -17.6045 Any
  1524 O1524     -6.4011    -8.9454    -4.4415 Any
  1525 H1525     -5.7813    -9.0095    -3.7269 Any
  1526 H1526     -6.4891    -8.0144    -4.5980 Any
  1527 O1527      9.8932    13.2504   -20.2192 Any
  1528 H1528     10.6570    13.7942   -20.0785 Any
  1529 H1529      9.7506    12.8195   -19.3868 Any
  1530 O1530      0.7574    -6.9394   -18.3222 Any
  1531 H1531      1.3429    -7.6814   -18.3958 Any
  1532 H1532      1.2025    -6.3418   -17.7359 Any
  1533 O1533    -12.0126    -3.8751    17.9032 Any
  1534 H1534    -11.3289    -4.3368    17.4360 Any
  1535 H1535    -11.6184    -3.0479    18.1466 Any
  1536 O1536      5.9475    19.0157    16.0486 Any
  1537 H1537      6.0531    18.0958    16.2527 Any
  1538 H1538      5.0968    19.0718    15.6338 Any
  1539 O1539     -8.5279   -12.3885    -7.5724 Any
  1540 H1540     -9.4181   -12.1862    -7.8283 Any
  1541 H1541     -8.0321   -12.3451    -8.3793 Any
  1542 O1542      5.8446    13.6014     4.4814 Any
  1543 H1543      6.7197    13.9438     4.6077 Any
  1544 H1544      5.9562    12.6599     4.4705 Any
  1545 O1545    -11.2031    18.8576   -12.3423 Any
  1546 H1546    -11.2565    18.2263   -11.6370 Any
  1547 H1547    -10.5852    18.4799   -12.9542 Any
  1548 O1548    -13.4694    -3.7471   -12.2723 Any
  1549 H1549    -13.1979    -3.5557   -13.1603 Any
  1550 H1550    -14.3420    -3.3823   -12.2058 Any
  1551 O1551      3.8755    -6.8928    -1.5468 Any
  1552 H1552      3.4353    -7.7227    -1.6748 Any
  1553 H1553      3.9641    -6.5328    -2.4194 Any
  1554 O1554     18.4793   -13.8135     4.8132 Any
  1555 H1555     17.6811   -14.3237     4.7743 Any
  1556 H1556     18.4215   -13.2235     4.0733 Any
  1557 O1557      8.6420    -1.0087    -7.4369 Any
  1558 H1558      8.3346    -1.1408    -6.5498 Any
  1559 H1559      8.1050    -0.3032    -7.7728 Any
  1560 O1560     -9.7465    -3.8995     5.8501 Any
  1561 H1561     -9.5371    -3.7232     4.9424 Any
  1562 H1562     -8.9940    -3.5852     6.3338 Any
  1563 O1563    -14.6646    15.2846    -1.3573 Any
  1564 H1564    -14.9955    15.1334    -0.4818 Any
  1565 H1565    -15.3824    15.0447    -1.9283 Any
  1566 O1566      6.0599    15.1152   -17.3055 Any
  1567 H1567      5.5756    15.1456   -18.1200 Any
  1568 H1568      6.4158    14.2370   -17.2724 Any
  1569 O1569    -10.9502   -15.4291     8.4240 Any
  1570 H1570    -10.3186   -16.0163     8.8179 Any
  1571 H1571    -11.7928   -15.7668     8.6977 Any
  1572 O1572     11.7225   -19.1781   -18.0182 Any
  1573 H1573     11.2185   -18.7107   -17.3653 Any
  1574 H1574     12.0139   -18.5064   -18.6205 Any
  1575 O1575     10.9720    10.4422     4.5777 Any
  1576 H1576     11.0137    11.2779     5.0235 Any
  1577 H1577     11.0460     9.7987     5.2700 Any
  1578 O1578     18.8801   -19.3323   -15.2735 Any
  1579 H1579     19.6856   -18.9574   -15.6044 Any
  1580 H1580     18.2242   -18.6663   -15.4324 Any
  1581 O1581     11.2503   -13.0059    -9.8917 Any
  1582 H1582     11.0249   -12.4986    -9.1231 Any
  1583 H1583     11.8934   -12.4778   -10.3459 Any
  1584 O1584     -1.6391   -19.1654    -2.9005 Any
  1585 H1585     -2.1911   -19.6806    -2.3271 Any
  1586 H1586     -2.2372   -18.7893    -3.5328 Any
  1587 O1587      5.6042    18.2420    -7.7347 Any
  1588 H1588      4.9764    17.9843    -8.3968 Any
  1589 H1589      5.1847    18.9562    -7.2733 Any
  1590 O1590     -7.3414   -20.0701   -13.5312 Any
  1591 H1591     -7.6403   -19.1858   -13.6973 Any
  1592 H1592     -8.0341   -20.4634   -13.0169 Any
  1593 O1593     17.3173    -3.9961     6.6201 Any
  1594 H1594     18.2276    -3.9740     6.3557 Any
  1595 H1595     17.3331    -3.7945     7.5464 Any
  1596 O1596     -3.5849    -3.8820    -3.5817 Any
  1597 H1597     -3.5637    -3.7137    -4.5145 Any
  1598 H1598     -4.4908    -4.0929    -3.3979 Any
  1599 O1599     13.4647     2.1172   -15.3414 Any
  1600 H1600     14.1506     1.6320   -15.7807 Any
  1601 H1601     13.6430     1.9990   -14.4178 Any
  1602 O1602      5.5675     4.3941     9.9102 Any
  1603 H1603      5.6600     4.1907    10.8316 Any
  1604 H1604      4.6338     4.3569     9.7502 Any
  1605 O1605    -16.3831    -2.7877    -4.1300 Any
  1606 H1606    -15.5981    -3.2253    -3.8281 Any
  1607 H1607    -17.0951    -3.2959    -3.7642 Any
  1608 O1608    -13.1262    13.3208     6.9117 Any
  1609 H1609    -12.3191    13.4147     6.4232 Any
  1610 H1610    -13.0686    12.4597     7.3043 Any
  1611 O1611      3.1393    -1.0118    19.3649 Any
  1612 H1612      2.8044    -0.2915    19.8825 Any
  1613 H1613      2.3878    -1.3267    18.8800 Any
  1614 O1614     14.6539   -17.9368     7.1939 Any
  1615 H1615     14.4762   -18.1250     6.2818 Any
  1616 H1616     15.4573   -18.4040     7.3816 Any
  1617 O1617     -4.1457     0.1089    19.0360 Any
  1618 H1618     -3.3088     0.5509    18.9810 Any
  1619 H1619     -4.2195    -0.1498    19.9452 Any
  1620 O1620    -16.1086    -3.0309   -12.0754 Any
  1621 H1621    -16.7972    -2.7626   -12.6693 Any
  1622 H1622    -16.0683    -2.3386   -11.4288 Any
  1623 O1623      5.8843   -18.0229    -1.7244 Any
  1624 H1624      6.3287   -17.8206    -0.9116 Any
  1625 H1625      6.5567   -18.3997    -2.2764 Any
  1626 O1626     -7.7738     8.2517    -6.8751 Any
  1627 H1627     -8.7126     8.2846    -6.7467 Any
  1628 H1628     -7.5775     7.3284    -6.9642 Any
  1629 O1629    -10.6236    -2.5297   -10.4552 Any
  1630 H1630    -11.1120    -3.2936   -10.1780 Any
  1631 H1631    -10.0222    -2.3595    -9.7422 Any
  1632 O1632      6.4167   -14.4272     6.6566 Any
  1633 H1633      6.8551   -13.5866     6.6450 Any
  1634 H1634      6.2099   -14.5757     7.5699 Any
  1635 O1635      0.2098   -15.8003    12.9920 Any
  1636 H1636      0.4090   -16.0766    12.1072 Any
  1637 H1637      0.6423   -16.4382    13.5441 Any
  1638 O1638    -14.0635    -9.0293    -7.6712 Any
  1639 H1639    -13.9865    -9.8044    -8.2117 Any
  1640 H1640    -13.2179    -8.9471    -7.2503 Any
  1641 O1641     -1.9733   -13.3148    13.9097 Any
  1642 H1642     -2.8741   -13.3423    13.6155 Any
  1643 H1643     -1.5535   -12.6890    13.3343 Any
  1644 O1644      0.6319   -18.8591    -9.7192 Any
  1645 H1645      0.3492   -18.7557    -8.8201 Any
  1646 H1646      1.2025   -18.1184    -9.8764 Any
  1647 O1647    -12.7905   -17.7808    -1.9488 Any
  1648 H1648    -13.5065   -17.1780    -1.7976 Any
  1649 H1649    -13.1922   -18.6393    -1.9241 Any
  1650 O1650      1.2878    -7.7638    12.7562 Any
  1651 H1651      1.9639    -7.1605    13.0350 Any
  1652 H1652      0.4750    -7.3373    12.9934 Any
  1653 O1653     11.6140    -1.1826   -16.3144 Any
  1654 H1654     11.1746    -0.4124   -15.9788 Any
  1655 H1655     10.9193    -1.7110   -16.6849 Any
  1656 O1656     17.1577    15.1838    -9.6414 Any
  1657 H1657     16.3293    14.7611    -9.4567 Any
  1658 H1658     17.2433    15.1388   -10.5846 Any
  1659 O1659      1.6822    12.6371   -19.6790 Any
  1660 H1660      0.9733    13.0447   -20.1588 Any
  1661 H1661      1.4233    11.7288   -19.5969 Any
  1662 O1662     11.7323    -6.4967     3.9602 Any
  1663 H1663     12.1612    -6.7474     4.7677 Any
  1664 H1664     11.6815    -7.2993     3.4580 Any
  1665 O1665      7.5621     9.7863    -3.0141 Any
  1666 H1666      7.4155    10.2839    -3.8077 Any
  1667 H1667      6.6952     9.6471    -2.6563 Any
  1668 O1668    -10.6731    17.5964    -6.7698 Any
  1669 H1669    -10.8109    18.5106    -6.5596 Any
  1670 H1670    -10.6290    17.1622    -5.9281 Any
  1671 O1671    -19.2236     3.8017     9.5162 Any
  1672 H1672    -19.1836     3.3101     8.7065 Any
  1673 H1673    -19.3531     4.7004     9.2434 Any
  1674 O1674     13.3181    16.1323    -4.7471 Any
  1675 H1675     12.9010    16.5227    -5.5037 Any
  1676 H1676     14.2462    16.2551    -4.8964 Any
  1677 O1677      3.2687     6.5235     6.8037 Any
  1678 H1678      2.7862     6.0094     7.4374 Any
  1679 H1679      3.8554     5.9036     6.3908 Any
  1680 O1680      7.4824   -16.7715     5.4351 Any
  1681 H1681      7.0193   -16.2316     6.0620 Any
  1682 H1682      7.6673   -17.5751     5.9029 Any
  1683 O1683    -15.3277    12.9393    -4.0975 Any
  1684 H1684    -15.3170    12.2568    -3.4394 Any
  1685 H1685    -15.0858    12.4991    -4.9016 Any
  1686 O1686    -13.4841    -2.7377    16.0628 Any
  1687 H1687    -13.9975    -2.0133    16.3955 Any
  1688 H1688    -13.1044    -3.1354    16.8352 Any
  1689 O1689     -2.9626   -11.6498     6.3841 Any
  1690 H1690     -3.8574   -11.8712     6.1624 Any
  1691 H1691     -2.9808   -11.4904     7.3185 Any
  1692 O1692      0.4254    18.1915    -7.8268 Any
  1693 H1693      0.7128    17.3518    -7.4935 Any
  1694 H1694      0.3876    18.7512    -7.0624 Any
  1695 O1695     10.6266   -17.8143    -9.3325 Any
  1696 H1696     10.9948   -16.9673    -9.5471 Any
  1697 H1697      9.8970   -17.9153    -9.9295 Any
  1698 O1698    -16.0785     7.7968     1.9384 Any
  1699 H1699    -15.9919     8.7073     1.6887 Any
  1700 H1700    -15.5980     7.7260     2.7526 Any
  1701 O1701     14.1588    -0.7880    -2.1132 Any
  1702 H1702     14.8188    -1.2477    -2.6151 Any
  1703 H1703     13.6560    -0.3113    -2.7604 Any
  1704 O1704      8.7215     4.7811    12.4369 Any
  1705 H1705      7.9438     5.2954    12.6086 Any
  1706 H1706      9.3195     5.0127    13.1353 Any
  1707 O1707    -12.2316     8.2168   -19.8141 Any
  1708 H1708    -11.3489     7.9097   -19.9738 Any
  1709 H1709    -12.7214     7.4337   -19.6002 Any
  1710 O1710     12.5302     1.7097     2.0948 Any
  1711 H1711     12.1291     1.6425     2.9513 Any
  1712 H1712     13.2016     2.3713     2.1972 Any
  1713 O1713     -5.1602    11.2050   -13.7481 Any
  1714 H1714     -5.2571    10.3944   -14.2302 Any
  1715 H1715     -4.2241    11.3505   -13.7117 Any
  1716 O1716     16.3677     1.3899     7.8647 Any
  1717 H1717     15.8868     1.6051     7.0765 Any
  1718 H1718     16.7270     0.5287     7.6971 Any
  1719 O1719    -16.8122     9.2992    16.1362 Any
  1720 H1720    -16.0499     8.9682    15.6798 Any
  1721 H1721    -16.6069     9.1882    17.0551 Any
  1722 O1722    -14.5991    11.1887    -6.0544 Any
  1723 H1723    -14.6016    10.6174    -6.8111 Any
  1724 H1724    -14.1482    10.6935    -5.3833 Any
  1725 O1725     -9.3778    -3.3840   -12.8189 Any
  1726 H1726     -9.7752    -2.9656   -12.0667 Any
  1727 H1727     -9.9959    -4.0570   -13.0717 Any
  1728 O1728     18.0996    -7.2107    19.2010 Any
  1729 H1729     18.9945    -7.5187    19.2573 Any
  1730 H1730     18.1707    -6.3354    18.8437 Any
  1731 O1731     13.5583     4.2922    18.2891 Any
  1732 H1732     13.9370     3.7638    18.9792 Any
  1733 H1733     12.8919     3.7390    17.9035 Any
  1734 O1734     13.2017   -19.5640     0.0682 Any
  1735 H1735     13.4026   -18.6633     0.2857 Any
  1736 H1736     12.5618   -19.8287     0.7158 Any
  1737 O1737     -6.0265    -5.9267     8.5927 Any
  1738 H1738     -5.6447    -6.3489     9.3509 Any
  1739 H1739     -6.5092    -5.1916     8.9469 Any
  1740 O1740    -19.6996    -8.4682   -20.1762 Any
  1741 H1741    -18.8313    -8.7056   -19.8784 Any
  1742 H1742    -20.2323    -8.4805   -19.3920 Any
  1743 O1743    -17.1266     5.1920    -7.9381 Any
  1744 H1744    -17.2030     6.1366    -7.9688 Any
  1745 H1745    -17.4184     4.9574    -7.0670 Any
  1746 O1746      1.1340   -15.8145     4.3108 Any
  1747 H1747      1.1186   -15.1172     3.6686 Any
  1748 H1748      2.0534   -15.9379     4.5068 Any
  1749 O1749      5.9026     1.8092    -2.0577 Any
  1750 H1750      6.6241     1.2964    -1.7181 Any
  1751 H1751      5.9968     1.7587    -2.9998 Any
  1752 O1752     -2.5421    14.5671    -7.9359 Any
  1753 H1753     -1.9524    14.3514    -8.6463 Any
  1754 H1754     -3.3865    14.6787    -8.3524 Any
  1755 O1755     16.0706   -12.2348   -19.5836 Any
  1756 H1756     16.8166   -11.7011   -19.8232 Any
  1757 H1757     16.1580   -13.0176   -20.1113 Any
  1758 O1758     -7.3852   -17.3246   -18.8706 Any
  1759 H1759     -7.4533   -17.3176   -17.9250 Any
  1760 H1760     -6.6329   -16.7795   -19.0596 Any
  1761 O1761    -17.4866    -9.6144     9.9654 Any
  1762 H1762    -16.5478    -9.6479     9.8372 Any
  1763 H1763    -17.6230    -9.9850    10.8273 Any
  1764 O1764     -6.5857    14.6415    -3.5534 Any
  1765 H1765     -6.3348    14.4885    -4.4548 Any
  1766 H1766     -5.8813    14.2651    -3.0426 Any
  1767 O1767    -13.1406   -15.8564    14.6535 Any
  1768 H1768    -13.4557   -16.1259    13.8008 Any
  1769 H1769    -12.9387   -14.9355    14.5529 Any
  1770 O1770     -0.2802   -11.5563    19.2296 Any
  1771 H1771      0.1879   -12.0831    19.8638 Any
  1772 H1772     -0.4533   -12.1481    18.5093 Any
  1773 O1773    -13.9737   -19.7273     1.4095 Any
  1774 H1774    -13.0338   -19.6883     1.5283 Any
  1775 H1775    -14.1808   -18.9602     0.8923 Any
  1776 O1776    -10.7140     5.7749    -8.7406 Any
  1777 H1777    -10.6164     5.7526    -7.7978 Any
  1778 H1778     -9.8298     5.8683    -9.0698 Any
  1779 O1779      1.8575   -13.8323     9.4451 Any
  1780 H1780      1.1420   -13.6751    10.0470 Any
  1781 H1781      1.4611   -14.2957     8.7192 Any
  1782 O1782      1.2914     1.8608    11.0763 Any
  1783 H1783      1.6873     1.1853    11.6110 Any
  1784 H1784      1.4717     2.6680    11.5397 Any
  1785 O1785      4.9849    10.7682     4.4314 Any
  1786 H1786      5.1492    10.1168     3.7624 Any
  1787 H1787      5.0556    10.2934     5.2490 Any
  1788 O1788     15.1996    -7.5018     2.6139 Any
  1789 H1789     14.7662    -6.8930     2.0303 Any
  1790 H1790     15.3613    -7.0017     3.4030 Any
  1791 O1791    -17.5810     0.0084    -5.9768 Any
  1792 H1792    -17.0480     0.2770    -5.2402 Any
  1793 H1793    -17.1432    -0.7590    -6.3208 Any
  1794 O1794     -0.2345    -9.8361   -12.6615 Any
  1795 H1795      0.3017    -9.3985   -13.3094 Any
  1796 H1796      0.2670    -9.7788   -11.8589 Any
  1797 O1797      4.0050   -13.9992    -3.2954 Any
  1798 H1798      3.7076   -13.4046    -3.9713 Any
  1799 H1799      4.2076   -14.8024    -3.7566 Any
  1800 O1800      5.6102     3.8955     0.3063 Any
  1801 H1801      6.3050     4.2466     0.8475 Any
  1802 H1802      5.7857     2.9646     0.2670 Any
  1803 O1803     16.9965    -0.8081    13.5058 Any
  1804 H1804     16.7144    -1.2429    14.2997 Any
  1805 H1805     17.2106     0.0738    13.7801 Any
  1806 O1806      9.8410   -11.1361     0.5211 Any
  1807 H1807      9.4569   -10.2742     0.4287 Any
  1808 H1808     10.0888   -11.1900     1.4346 Any
  1809 O1809      2.5704     3.9549    12.6149 Any
  1810 H1810      2.4273     4.6829    13.2051 Any
  1811 H1811      3.5125     3.9066    12.5198 Any
  1812 O1812    -13.9412    13.1047    12.4142 Any
  1813 H1813    -13.5795    13.0048    11.5435 Any
  1814 H1814    -13.1842    13.1900    12.9786 Any
  1815 O1815      1.9953    -1.6359   -10.5962 Any
  1816 H1816      2.6490    -1.1441   -11.0755 Any
  1817 H1817      2.4873    -2.1067    -9.9365 Any
  1818 O1818    -17.0575   -17.3359    13.1555 Any
  1819 H1819    -17.7212   -17.6741    13.7420 Any
  1820 H1820    -16.2769   -17.8302    13.3681 Any
  1821 O1821    -10.3546    -5.9273     8.4921 Any
  1822 H1822    -11.1174    -5.9775     7.9314 Any
  1823 H1823     -9.6275    -6.1504     7.9260 Any
  1824 O1824     10.8715   -13.7521    19.6739 Any
  1825 H1825     10.3004   -13.4621    20.3729 Any
  1826 H1826     11.1234   -12.9555    19.2257 Any
  1827 O1827      0.4194   -18.2468    -6.8728 Any
  1828 H1828      0.1961   -18.7945    -6.1318 Any
  1829 H1829     -0.4151   -18.0183    -7.2605 Any
  1830 O1830      7.9474   -12.5549   -15.5433 Any
  1831 H1831      7.1173   -12.9813   -15.7104 Any
  1832 H1832      8.3868   -13.1228   -14.9241 Any
  1833 O1833    -17.3870    14.8851    -1.5072 Any
  1834 H1834    -17.8108    14.5472    -0.7293 Any
  1835 H1835    -17.4567    14.1832    -2.1407 Any
  1836 O1836     -6.8640   -19.9778    17.9763 Any
  1837 H1837     -6.6138   -19.2137    17.4739 Any
  1838 H1838     -6.4441   -19.8578    18.8179 Any
  1839 O1839    -19.1942   -14.8647    11.9207 Any
  1840 H1840    -18.5476   -14.7913    12.6102 Any
  1841 H1841    -19.4000   -13.9683    11.6904 Any
  1842 O1842     10.9516   -14.8897     2.3135 Any
  1843 H1843     10.4722   -15.0791     3.1093 Any
  1844 H1844     10.2872   -14.8513     1.6382 Any
  1845 O1845    -13.8973    14.0061   -16.3135 Any
  1846 H1846    -14.1963    13.4890   -15.5772 Any
  1847 H1847    -14.6584    14.0869   -16.8729 Any
  1848 O1848     -8.7501    -4.7836    13.2245 Any
  1849 H1849     -9.0314    -4.8976    12.3263 Any
  1850 H1850     -7.8430    -5.0593    13.2271 Any
  1851 O1851     -8.3732   -12.7628     1.0081 Any
  1852 H1852     -8.2504   -12.0550     1.6268 Any
  1853 H1853     -8.6590   -12.3359     0.2112 Any
  1854 O1854     -5.1921    17.3067   -18.7680 Any
  1855 H1855     -5.7268    16.5840   -18.4668 Any
  1856 H1856     -4.3054    16.9718   -18.7481 Any
  1857 O1857     13.7588     5.6916   -19.1283 Any
  1858 H1858     14.4144     5.0136   -19.2251 Any
  1859 H1859     13.3706     5.7726   -19.9895 Any
  1860 O1860    -11.2134   -13.3329    18.0369 Any
  1861 H1861    -10.5992   -13.3533    18.7589 Any
  1862 H1862    -11.4182   -14.2439    17.8722 Any
  1863 O1863    -16.0516   -17.8072   -12.2124 Any
  1864 H1864    -16.9053   -17.6187   -12.5793 Any
  1865 H1865    -15.5062   -17.9993   -12.9638 Any
  1866 O1866     14.5602     7.6317   -10.7970 Any
  1867 H1867     15.1736     7.7832   -10.0901 Any
  1868 H1868     14.9394     6.9181   -11.2929 Any
  1869 O1869    -16.8799     2.9936   -16.9045 Any
  1870 H1870    -17.1349     2.3609   -16.2461 Any
  1871 H1871    -16.0547     2.6692   -17.2401 Any
  1872 O1872     -7.9587    -1.3358   -16.5543 Any
  1873 H1873     -8.3518    -1.0119   -15.7547 Any
  1874 H1874     -7.5027    -0.5874   -16.9160 Any
  1875 O1875     19.6785    17.8585   -15.3545 Any
  1876 H1876     19.4404    18.7747   -15.3016 Any
  1877 H1877     19.5252    17.5215   -14.4817 Any
  1878 O1878      9.3207     1.7383     2.6312 Any
  1879 H1879      9.5865     0.8745     2.9176 Any
  1880 H1880      9.5708     2.3129     3.3427 Any
  1881 O1881      5.3671    -3.4212   -11.9780 Any
  1882 H1882      4.7264    -4.1197   -11.9565 Any
  1883 H1883      6.1874    -3.8430   -11.7591 Any
  1884 O1884     -7.8416    15.4198   -14.2622 Any
  1885 H1885     -8.4028    15.4085   -15.0263 Any
  1886 H1886     -7.8276    14.5202   -13.9633 Any
  1887 O1887     -7.3385    14.3614     3.9947 Any
  1888 H1888     -8.0033    14.9482     4.3303 Any
  1889 H1889     -7.6981    13.4940     4.1255 Any
  1890 O1890      9.0199    -4.7361    16.4349 Any
  1891 H1891      9.7559    -4.9868    16.9773 Any
  1892 H1892      9.4101    -4.2900    15.6948 Any
  1893 O1893     10.0240    -9.8697   -17.5819 Any
  1894 H1894     10.6942   -10.4024   -17.9892 Any
  1895 H1895     10.3551    -9.6947   -16.7109 Any
  1896 O1896     17.0619    -3.3485     2.8056 Any
  1897 H1897     17.0840    -4.2914     2.7091 Any
  1898 H1898     16.1421    -3.1249     2.7528 Any
  1899 O1899     12.8683     1.4835    17.4410 Any
  1900 H1900     13.0955     1.1473    18.2978 Any
  1901 H1901     11.9441     1.6860    17.5016 Any
  1902 O1902     -0.3663    15.5053    -6.3233 Any
  1903 H1903      0.1284    14.6985    -6.2663 Any
  1904 H1904     -0.9911    15.3532    -7.0200 Any
  1905 O1905    -17.8448   -13.8001    19.2773 Any
  1906 H1906    -18.7654   -13.9786    19.1374 Any
  1907 H1907    -17.7069   -12.9443    18.8932 Any
  1908 O1908      7.5881     1.0534    -4.4128 Any
  1909 H1909      8.2721     1.4175    -3.8665 Any
  1910 H1910      7.7299     1.4443    -5.2649 Any
  1911 O1911      5.5134   -16.6747    -6.7804 Any
  1912 H1912      4.5774   -16.5254    -6.8019 Any
  1913 H1913      5.6358   -17.3233    -6.0998 Any
  1914 O1914     -7.1514   -18.4887   -10.5859 Any
  1915 H1915     -7.1476   -19.4293   -10.4670 Any
  1916 H1916     -6.5682   -18.3385   -11.3183 Any
  1917 O1917     -5.3674    -6.2021     6.1547 Any
  1918 H1918     -5.6116    -5.9950     7.0471 Any
  1919 H1919     -5.5554    -7.1270     6.0646 Any
  1920 O1920     -3.8669    14.2442    -5.2946 Any
  1921 H1921     -4.5269    13.5839    -5.4597 Any
  1922 H1922     -3.9129    14.8205    -6.0461 Any
  1923 O1923      6.7591    20.0610    11.2089 Any
  1924 H1924      7.6191    20.2139    11.5777 Any
  1925 H1925      6.8155    19.1972    10.8224 Any
  1926 O1926      8.9968   -16.4191   -12.4145 Any
  1927 H1927      9.7185   -15.9045   -12.7510 Any
  1928 H1928      8.4176   -15.7842   -12.0140 Any
  1929 O1929     -8.6067    -1.7613    -8.7337 Any
  1930 H1930     -7.9104    -1.1686    -8.9844 Any
  1931 H1931     -9.0752    -1.3028    -8.0487 Any
  1932 O1932      5.2926     4.3122    -3.4598 Any
  1933 H1933      5.2161     5.1897    -3.1091 Any
  1934 H1934      5.3401     3.7532    -2.6955 Any
  1935 O1935    -15.6399     2.7466    14.0563 Any
  1936 H1936    -16.2136     2.7902    13.3027 Any
  1937 H1937    -15.0119     2.0703    13.8391 Any
  1938 O1938      1.7293    12.8061   -12.7830 Any
  1939 H1939      1.8439    12.0863   -13.3893 Any
  1940 H1940      1.1768    12.4547   -12.0973 Any
  1941 O1941     15.3899     5.1072   -15.5648 Any
  1942 H1942     15.2828     5.8871   -16.0932 Any
  1943 H1943     14.8089     4.4702   -15.9592 Any
  1944 O1944     18.3888     3.5544    -3.3589 Any
  1945 H1945     17.7858     2.9916    -2.8914 Any
  1946 H1946     18.4310     4.3446    -2.8368 Any
  1947 O1947     17.2075     0.2328     3.0576 Any
  1948 H1948     17.4670    -0.3984     3.7157 Any
  1949 H1949     16.4769    -0.1747     2.6113 Any
  1950 O1950      0.5635    11.2394   -10.6665 Any
  1951 H1951      0.8051    10.3595   -10.4091 Any
  1952 H1952      0.9679    11.7978   -10.0157 Any
  1953 O1953    -13.0124    16.8476    -3.1827 Any
  1954 H1954    -13.5370    17.0040    -3.9568 Any
  1955 H1955    -13.5218    16.2345    -2.6693 Any
  1956 O1956     14.9455     5.1473   -12.3087 Any
  1957 H1957     14.0058     5.0437   -12.3792 Any
  1958 H1958     15.2431     5.2404   -13.2041 Any
  1959 O1959     -4.8210    -2.0244     8.3550 Any
  1960 H1960     -3.9663    -1.6552     8.1758 Any
  1961 H1961     -4.6675    -2.6577     9.0437 Any
  1962 O1962     -2.2751     6.7158    10.7674 Any
  1963 H1963     -2.9854     6.0937    10.8526 Any
  1964 H1964     -2.6694     7.4729    10.3549 Any
  1965 O1965     -9.6758   -13.7832   -19.7708 Any
  1966 H1966     -9.1577   -14.4714   -20.1669 Any
  1967 H1967     -9.2652   -13.6294   -18.9302 Any
  1968 O1968      2.5629   -19.3074    11.0494 Any
  1969 H1969      1.9756   -18.9113    10.4194 Any
  1970 H1970      2.5212   -18.7371    11.8057 Any
  1971 O1971      0.9743    10.7742   -14.8322 Any
  1972 H1972      0.8906    10.7739   -15.7766 Any
  1973 H1973      0.0877    10.8828   -14.5143 Any
  1974 O1974     -4.7336   -15.9442     5.2706 Any
  1975 H1975     -4.0240   -16.4185     4.8578 Any
  1976 H1976     -4.9109   -15.2215     4.6831 Any
  1977 O1977     -7.1244     5.4443    -6.5464 Any
  1978 H1978     -7.6037     4.6298    -6.6232 Any
  1979 H1979     -6.2666     5.2505    -6.9006 Any
  1980 O1980     -2.0443    -1.0598    11.3551 Any
  1981 H1981     -2.4923    -1.1891    10.5296 Any
  1982 H1982     -2.5162    -0.3522    11.7742 Any
  1983 O1983     -6.0695    20.0265     0.3809 Any
  1984 H1984     -6.7443    20.3839    -0.1811 Any
  1985 H1985     -5.6645    19.3436    -0.1372 Any
  1986 O1986    -19.7470    -2.8374     9.0448 Any
  1987 H1987    -19.2912    -3.1074     8.2586 Any
  1988 H1988    -19.3618    -2.0004     9.2683 Any
  1989 O1989    -19.9728     0.3518    19.7413 Any
  1990 H1990    -19.2024     0.2568    19.1969 Any
  1991 H1991    -20.6317    -0.1821    19.3174 Any
  1992 O1992      4.8901     9.0742    -2.7238 Any
  1993 H1993      4.1287     9.6372    -2.6766 Any
  1994 H1994      4.6011     8.2507    -2.3534 Any
  1995 O1995     17.0949    14.2050     2.6199 Any
  1996 H1996     17.4642    14.9559     2.1744 Any
  1997 H1997     17.3966    13.4585     2.1193 Any
  1998 O1998      3.9862    -0.5534   -12.0925 Any
  1999 H1999      4.0943    -1.4807   -12.2575 Any
  2000 H2000      4.8653    -0.2350   -11.9355 Any
  2001 O2001      2.6399   -16.4788   -14.9138 Any
  2002 H2002      3.2169   -17.0135   -15.4430 Any
  2003 H2003      1.7709   -16.6693   -15.2416 Any
  2004 O2004     16.4905    14.7939     5.1847 Any
  2005 H2005     17.4035    15.0361     5.2665 Any
  2006 H2006     16.3883    14.5532     4.2734 Any
  2007 O2007    -15.0260   -14.9943   -13.7061 Any
  2008 H2008    -14.2903   -15.4207   -13.2870 Any
  2009 H2009    -15.4848   -15.6940   -14.1520 Any
  2010 O2010      1.5059   -14.2301   -17.0791 Any
  2011 H2011      1.7694   -14.6389   -16.2653 Any
  2012 H2012      0.7750   -14.7522   -17.3825 Any
  2013 O2013     19.5585    16.2221     5.8269 Any
  2014 H2014     19.2229    16.1455     6.7104 Any
  2015 H2015     19.5136    17.1494     5.6343 Any
  2016 O2016    -13.3478     2.3231   -17.6069 Any
  2017 H2017    -12.9903     1.6292   -18.1449 Any
  2018 H2018    -13.8376     2.8652   -18.2112 Any
  2019 O2019     10.4758     2.2727    17.8371 Any
  2020 H2020      9.8716     1.8067    18.3998 Any
  2021 H2021     10.0020     3.0490    17.5694 Any
  2022 O2022    -17.3928    -9.8606   -19.4739 Any
  2023 H2023    -17.0122   -10.5739   -18.9787 Any
  2024 H2024    -17.6427   -10.2512   -20.3009 Any
  2025 O2025    -15.8176    10.1774    -2.7100 Any
  2026 H2026    -15.4447     9.3369    -2.9409 Any
  2027 H2027    -15.3241    10.4567    -1.9501 Any
  2028 O2028     16.0325     3.3819   -10.1156 Any
  2029 H2029     15.3668     3.8696   -10.5824 Any
  2030 H2030     15.7118     3.3334    -9.2247 Any
  2031 O2031     -2.7192   -10.4736   -19.3448 Any
  2032 H2032     -3.1413   -10.3048   -20.1768 Any
  2033 H2033     -1.7920   -10.4699   -19.5426 Any
  2034 O2034     18.7527    -7.1635     5.0282 Any
  2035 H2035     18.7943    -7.3822     5.9498 Any
  2036 H2036     17.8440    -6.9394     4.8771 Any
  2037 O2037     -1.7600   -14.3966     9.2111 Any
  2038 H2038     -2.6421   -14.0571     9.2850 Any
  2039 H2039     -1.2604   -13.9032     9.8482 Any
  2040 O2040     -3.5416    10.5301   -16.3046 Any
  2041 H2041     -3.5353    11.4777   -16.3345 Any
  2042 H2042     -3.0142    10.3119   -15.5476 Any
  2043 O2043      2.1253    -1.0884     3.5479 Any
  2044 H2044      1.7839    -0.8090     2.7087 Any
  2045 H2045      1.3553    -1.2790     4.0671 Any
  2046 O2046     -2.0805     0.4332   -15.0594 Any
  2047 H2047     -1.6871     0.5323   -14.2024 Any
  2048 H2048     -3.0143     0.4454   -14.8959 Any
  2049 O2049      0.4541    16.7427   -11.8136 Any
  2050 H2050     -0.3684    16.5888   -12.2595 Any
  2051 H2051      0.4906    17.6831   -11.6984 Any
  2052 O2052     14.9089   -14.5428     2.3095 Any
  2053 H2053     14.5136   -14.0609     1.5950 Any
  2054 H2054     15.8379   -14.5300     2.1205 Any
  2055 O2055     -8.1281     7.6183    -2.2816 Any
  2056 H2056     -8.1280     8.4839    -2.6685 Any
  2057 H2057     -8.7913     7.1419    -2.7633 Any
  2058 O2058     19.1108   -15.5138     7.2819 Any
  2059 H2059     19.0067   -15.1791     6.4009 Any
  2060 H2060     19.1125   -14.7414     7.8317 Any
  2061 O2061     13.6442   -12.2311     7.7273 Any
  2062 H2062     13.1214   -12.9517     7.4015 Any
  2063 H2063     14.0595   -12.5718     8.5086 Any
  2064 O2064    -16.6579    10.8470     1.8493 Any
  2065 H2065    -17.5430    10.9209     1.5177 Any
  2066 H2066    -16.7494    10.9153     2.7905 Any
  2067 O2067      5.2086     2.4702    14.6274 Any
  2068 H2068      4.4364     2.4742    15.1775 Any
  2069 H2069      5.8562     1.9928    15.1290 Any
  2070 O2070    -12.3108     8.2523    12.5951 Any
  2071 H2071    -12.9743     8.9276    12.5454 Any
  2072 H2072    -12.5411     7.6406    11.9083 Any
  2073 O2073     12.6020     7.6528     3.5902 Any
  2074 H2074     12.0145     8.3940     3.5237 Any
  2075 H2075     12.6118     7.2774     2.7197 Any
  2076 O2076     -4.1540    -5.5897    14.7989 Any
  2077 H2077     -4.4933    -5.2769    15.6272 Any
  2078 H2078     -3.9632    -4.8021    14.3067 Any
  2079 O2079      0.4998     1.3610    14.1014 Any
  2080 H2080      1.2341     0.8668    13.7614 Any
  2081 H2081      0.8189     2.2518    14.1607 Any
  2082 O2082     11.8240    13.7551    -4.1510 Any
  2083 H2083     12.3335    14.5334    -3.9680 Any
  2084 H2084     11.6230    13.3953    -3.2971 Any
  2085 O2085    -10.0128    10.0375    17.2648 Any
  2086 H2086    -10.1786     9.2440    17.7564 Any
  2087 H2087     -9.5938    10.6193    17.8852 Any
  2088 O2088     -2.0255     6.3674    19.6951 Any
  2089 H2089     -2.5893     6.2769    18.9382 Any
  2090 H2090     -2.6176     6.3608    20.4355 Any
  2091 O2091     -5.9378     2.6948    18.7302 Any
  2092 H2092     -6.5262     2.3102    18.0941 Any
  2093 H2093     -5.4562     1.9592    19.0849 Any
  2094 O2094      9.6116     0.8662     8.9730 Any
  2095 H2095      8.8962     0.4604     9.4446 Any
  2096 H2096      9.4120     0.7129     8.0589 Any
  2097 O2097    -11.9003    16.6786     9.4045 Any
  2098 H2098    -12.6438    16.1338     9.1824 Any
  2099 H2099    -12.2267    17.2669    10.0725 Any
  2100 O2100     16.8551    13.5209   -17.0585 Any
  2101 H2101     16.9710    13.6745   -17.9869 Any
  2102 H2102     16.9531    12.5832   -16.9579 Any
  2103 O2103    -10.7082     5.4306     3.3196 Any
  2104 H2104    -10.3627     6.0630     3.9357 Any
  2105 H2105     -9.9971     5.2772     2.7115 Any
  2106 O2106     16.8032    18.8304   -18.0462 Any
  2107 H2107     17.5202    18.3281   -18.4103 Any
  2108 H2108     16.0225    18.4001   -18.3689 Any
  2109 O2109     18.9110    13.5380    16.1152 Any
  2110 H2110     18.6302    14.1113    16.8161 Any
  2111 H2111     18.7074    14.0145    15.3213 Any
  2112 O2112      4.9486   -18.8436   -10.0510 Any
  2113 H2113      5.3155   -18.7053    -9.1878 Any
  2114 H2114      5.3004   -19.6791   -10.3285 Any
  2115 O2115     15.2777    19.2945   -15.6587 Any
  2116 H2116     14.5765    18.9931   -16.2211 Any
  2117 H2117     16.0499    19.2740   -16.2085 Any
  2118 O2118     12.7421     8.5459    -6.6399 Any
  2119 H2119     13.2214     9.3120    -6.3532 Any
  2120 H2120     13.4088     7.8872    -6.7831 Any
  2121 O2121      1.0391   -16.0175     7.8667 Any
  2122 H2122      1.7717   -16.2935     7.3319 Any
  2123 H2123      0.2748   -16.3467     7.4124 Any
  2124 O2124     -3.7330    11.1231    16.6844 Any
  2125 H2125     -3.9981    11.2761    17.5818 Any
  2126 H2126     -4.1246    11.8348    16.1955 Any
  2127 O2127    -11.0398     5.7509   -13.7299 Any
  2128 H2128    -11.2045     6.5143   -14.2676 Any
  2129 H2129    -11.4145     5.0299   -14.2184 Any
  2130 O2130      7.8781    17.0686   -11.8941 Any
  2131 H2131      7.2071    16.4551   -11.6253 Any
  2132 H2132      8.6145    16.8800   -11.3276 Any
  2133 O2133     -4.9960   -16.7955    13.4547 Any
  2134 H2134     -4.0663   -16.9188    13.5939 Any
  2135 H2135     -5.3994   -17.5570    13.8499 Any
  2136 O2136    -18.6276     8.1436     0.7007 Any
  2137 H2137    -18.3599     7.2533     0.5149 Any
  2138 H2138    -17.8146     8.6204     0.8042 Any
  2139 O2139     14.9048    -8.1644   -10.5076 Any
  2140 H2140     15.4993    -7.4390   -10.6464 Any
  2141 H2141     14.2060    -7.8022    -9.9789 Any
  2142 O2142     -0.9617   -12.6021    -1.3403 Any
  2143 H2143     -1.6560   -12.3427    -1.9315 Any
  2144 H2144     -1.4058   -13.0519    -0.6337 Any
  2145 O2145      5.4198    15.1325     8.6228 Any
  2146 H2146      5.0946    14.3081     8.2860 Any
  2147 H2147      4.6729    15.7155     8.5884 Any
  2148 O2148     -7.7174   -11.7894   -14.8438 Any
  2149 H2149     -7.5798   -10.8600   -14.9706 Any
  2150 H2150     -8.5612   -11.8494   -14.4156 Any
  2151 O2151    -17.8890   -10.7871    12.3488 Any
  2152 H2152    -18.6010   -11.1517    12.8578 Any
  2153 H2153    -17.3519   -11.5343    12.1207 Any
  2154 O2154      2.6925   -18.7530   -12.7797 Any
  2155 H2155      2.6173   -17.8108   -12.7049 Any
  2156 H2156      3.6244   -18.9220   -12.7368 Any
  2157 O2157      6.5305     9.2496    17.9779 Any
  2158 H2158      6.9885     8.9285    18.7434 Any
  2159 H2159      6.3100     8.4691    17.4870 Any
  2160 O2160      4.9381    -9.7403    10.4871 Any
  2161 H2161      5.4369    -9.4981     9.7181 Any
  2162 H2162      4.0641    -9.9097    10.1608 Any
  2163 O2163     19.5388    17.7402    -6.3273 Any
  2164 H2164     18.5956    17.8267    -6.3685 Any
  2165 H2165     19.7693    17.2645    -7.1144 Any
  2166 O2166      9.2514    13.2439    17.0743 Any
  2167 H2167      9.3762    13.1824    18.0121 Any
  2168 H2168      8.5360    12.6500    16.8894 Any
  2169 O2169     16.2795   -11.5184     5.5664 Any
  2170 H2170     15.6343   -10.9693     5.1409 Any
  2171 H2171     16.8341   -11.8250     4.8611 Any
  2172 O2172      7.5237   -12.2392     7.4556 Any
  2173 H2173      7.1903   -11.5491     6.8974 Any
  2174 H2174      8.2231   -11.8305     7.9482 Any
  2175 O2175      0.4434    14.1264    -2.3164 Any
  2176 H2176     -0.1512    13.5307    -2.7529 Any
  2177 H2177      0.1661    14.9885    -2.5973 Any
  2178 O2178    -13.0903   -16.1325     4.8048 Any
  2179 H2179    -13.3807   -17.0209     4.9639 Any
  2180 H2180    -13.0577   -16.0578     3.8602 Any
  2181 O2181     -1.4117    -5.8290   -12.9066 Any
  2182 H2182     -0.6438    -5.4287   -12.5205 Any
  2183 H2183     -2.0604    -5.1377   -12.9190 Any
  2184 O2184    -10.1710    -4.7739    16.0262 Any
  2185 H2185    -10.2276    -4.7430    15.0803 Any
  2186 H2186     -9.2745    -5.0266    16.2034 Any
  2187 O2187      0.8398   -14.1430     2.1469 Any
  2188 H2188      0.2093   -13.7348     2.7255 Any
  2189 H2189      1.1370   -13.4402     1.5841 Any
  2190 O2190    -11.5392   -17.1847   -18.0271 Any
  2191 H2191    -11.0919   -17.4119   -18.8315 Any
  2192 H2192    -12.3488   -17.6772   -18.0570 Any
  2193 O2193     10.7973   -18.2880    -2.2794 Any
  2194 H2194     11.5751   -18.8215    -2.3755 Any
  2195 H2195     11.1201   -17.4468    -1.9841 Any
  2196 O2196    -18.1403   -12.2206    -8.3336 Any
  2197 H2197    -18.4244   -12.0173    -9.2150 Any
  2198 H2198    -17.7923   -11.4039    -8.0009 Any
  2199 O2199      4.0698    -8.0829    13.9794 Any
  2200 H2200      3.7030    -8.9044    13.6805 Any
  2201 H2201      4.0042    -8.1222    14.9244 Any
  2202 O2202     -0.2748    14.9940    -9.5173 Any
  2203 H2203      0.4707    14.4598    -9.2768 Any
  2204 H2204      0.0977    15.7191   -10.0013 Any
  2205 O2205     12.2944   -12.1793    18.0085 Any
  2206 H2206     13.0059   -11.5527    18.0089 Any
  2207 H2207     12.6539   -12.9487    18.4299 Any
  2208 O2208     -7.9184    -4.9136    -0.5557 Any
  2209 H2209     -8.7487    -5.3403    -0.7212 Any
  2210 H2210     -7.3703    -5.5935    -0.1866 Any
  2211 O2211    -17.9966    -7.6758    -9.0345 Any
  2212 H2212    -17.1747    -7.2032    -9.0417 Any
  2213 H2213    -18.3525    -7.5221    -8.1693 Any
  2214 O2214     19.9593    11.5838     5.7000 Any
  2215 H2215     19.0767    11.6821     6.0320 Any
  2216 H2216     20.1813    12.4389     5.3560 Any
  2217 O2217     19.3734    -3.6633    15.7170 Any
  2218 H2218     18.8612    -4.0582    15.0238 Any
  2219 H2219     19.3839    -2.7384    15.5087 Any
  2220 O2220     19.3593   -12.6671    -2.1326 Any
  2221 H2221     20.0379   -12.0372    -2.3365 Any
  2222 H2222     19.6521   -13.4726    -2.5380 Any
  2223 O2223    -19.3040    19.1183    13.5092 Any
  2224 H2224    -19.2641    18.5229    12.7725 Any
  2225 H2225    -19.9634    19.7546    13.2661 Any
  2226 O2226     -1.2270    -4.5306   -17.5122 Any
  2227 H2227     -0.7237    -4.0791   -18.1769 Any
  2228 H2228     -1.7286    -5.1772   -17.9910 Any
  2229 O2229     -6.3911   -15.3828     7.3058 Any
  2230 H2230     -5.8053   -15.5217     6.5734 Any
  2231 H2231     -7.1739   -15.0139     6.9185 Any
  2232 O2232     -7.2941    17.3467    -4.9785 Any
  2233 H2233     -8.0527    16.8821    -4.6505 Any
  2234 H2234     -6.7971    17.5697    -4.2025 Any
  2235 O2235    -14.0704   -17.3524    11.9783 Any
  2236 H2236    -14.6399   -16.6682    11.6520 Any
  2237 H2237    -13.2778   -17.2679    11.4650 Any
  2238 O2238    -14.9465   -19.6039    -1.7077 Any
  2239 H2239    -14.9505   -20.2120    -0.9803 Any
  2240 H2240    -15.4013   -20.0607    -2.4030 Any
  2241 O2241      3.4187    -0.0995    -6.2766 Any
  2242 H2242      3.6705     0.7427    -5.9211 Any
  2243 H2243      2.5710    -0.2773    -5.8910 Any
  2244 O2244    -16.0582    10.1173     8.3999 Any
  2245 H2245    -15.1599    10.2785     8.1433 Any
  2246 H2246    -16.0217    10.0100     9.3412 Any
  2247 O2247    -12.5037    13.2582    17.0729 Any
  2248 H2248    -12.7606    13.1996    17.9837 Any
  2249 H2249    -13.2193    12.8577    16.5970 Any
  2250 O2250     -1.8147     4.2369   -15.7417 Any
  2251 H2251     -2.5086     4.5124   -16.3261 Any
  2252 H2252     -1.4304     3.4818   -16.1671 Any
  2253 O2253    -18.7045     1.9364   -11.2602 Any
  2254 H2254    -17.9459     1.4536   -11.5606 Any
  2255 H2255    -18.3461     2.6469   -10.7447 Any
  2256 O2256    -16.0718    -5.1632     6.1411 Any
  2257 H2257    -16.6660    -5.8499     5.8685 Any
  2258 H2258    -16.6362    -4.4368     6.3705 Any
  2259 O2259    -15.0073     6.8965    11.6055 Any
  2260 H2260    -14.5057     6.4231    10.9550 Any
  2261 H2261    -15.7276     7.2772    11.1206 Any
  2262 O2262     -3.5534    -3.3591   -20.0540 Any
  2263 H2263     -3.7860    -2.4957   -19.7387 Any
  2264 H2264     -4.2618    -3.9180   -19.7632 Any
  2265 O2265    -18.5933    -1.5313    11.6093 Any
  2266 H2266    -17.8712    -2.1437    11.6587 Any
  2267 H2267    -19.3661    -2.0778    11.5533 Any
  2268 O2268    -13.3313    10.9756     8.2831 Any
  2269 H2269    -13.2515    10.0346     8.1992 Any
  2270 H2270    -12.7961    11.1942     9.0346 Any
  2271 O2271     17.7759   -15.7273   -16.6968 Any
  2272 H2272     18.3365   -15.1220   -17.1640 Any
  2273 H2273     17.6677   -15.3385   -15.8389 Any
  2274 O2274    -16.4955    -7.4128    -3.0087 Any
  2275 H2275    -17.4386    -7.5005    -3.0512 Any
  2276 H2276    -16.1787    -8.2986    -2.8911 Any
  2277 O2277    -19.4151   -15.1873     2.4224 Any
  2278 H2278    -18.6648   -15.6759     2.1107 Any
  2279 H2279    -19.4036   -15.3070     3.3629 Any
  2280 O2280     14.4206     2.4395     6.2433 Any
  2281 H2281     13.9299     1.6527     6.0455 Any
  2282 H2282     13.8413     2.9498     6.7936 Any
  2283 O2283     -7.4905    -5.5454    16.1912 Any
  2284 H2284     -7.1068    -6.1022    15.5266 Any
  2285 H2285     -6.9301    -5.6562    16.9478 Any
  2286 O2286     12.4799   -12.0873    13.0412 Any
  2287 H2287     12.2483   -11.7852    13.9095 Any
  2288 H2288     13.4096   -12.2664    13.0910 Any
  2289 O2289     10.5683     9.0686     1.9347 Any
  2290 H2290     10.0627     9.1607     2.7314 Any
  2291 H2291      9.9315     9.1510     1.2372 Any
  2292 O2292     -4.7713     0.4495   -14.8604 Any
  2293 H2293     -5.2120    -0.3860   -14.9411 Any
  2294 H2294     -4.8791     0.8590   -15.7087 Any
  2295 O2295    -13.1038   -15.2005    -8.4548 Any
  2296 H2296    -13.4048   -15.9070    -9.0109 Any
  2297 H2297    -13.6890   -14.4798    -8.6472 Any
  2298 O2298     -0.0480   -16.3766   -16.6445 Any
  2299 H2299     -0.5626   -16.1936   -15.8695 Any
  2300 H2300     -0.6397   -16.8451   -17.2184 Any
  2301 O2301    -12.2589     8.9496     0.5289 Any
  2302 H2302    -12.7092     9.0582    -0.2984 Any
  2303 H2303    -12.4409     9.7483     1.0061 Any
  2304 O2304     17.4624   -17.4026    17.4624 Any
  2305 H2305     17.7974   -18.2621    17.6813 Any
  2306 H2306     16.6833   -17.3077    17.9943 Any
  2307 O2307      2.6249    13.0027    12.3870 Any
  2308 H2308      3.0637    12.5483    13.0940 Any
  2309 H2309      2.3212    13.8122    12.7760 Any
  2310 O2310     -8.1595    13.9881    11.5731 Any
  2311 H2311     -7.3696    14.2592    11.1243 Any
  2312 H2312     -8.8651    14.3514    11.0545 Any
  2313 O2313    -14.8847   -18.9437    14.4524 Any
  2314 H2314    -14.3438   -18.7020    13.7122 Any
  2315 H2315    -15.3054   -19.7507    14.1868 Any
  2316 O2316     -5.9312     0.9161   -17.3543 Any
  2317 H2317     -5.2816     1.5523   -17.6228 Any
  2318 H2318     -6.2286     0.5227   -18.1641 Any
  2319 O2319    -17.4842    17.6697     6.8681 Any
  2320 H2320    -17.5906    16.7284     6.9072 Any
  2321 H2321    -17.5986    17.8848     5.9519 Any
  2322 O2322    -14.5312    -1.4430     7.1778 Any
  2323 H2323    -14.0144    -0.6529     7.0915 Any
  2324 H2324    -14.3305    -1.7656     8.0464 Any
  2325 O2325     11.1380   -18.0061    11.5496 Any
  2326 H2326     10.3561   -17.6549    11.9547 Any
  2327 H2327     11.3426   -17.3937    10.8554 Any
  2328 O2328     19.9136    -3.4624   -15.6836 Any
  2329 H2329     20.2756    -2.7317   -16.1672 Any
  2330 H2330     19.4650    -3.9823   -16.3374 Any
  2331 O2331      1.7562     3.9428    -3.8402 Any
  2332 H2332      2.2917     3.1604    -3.8385 Any
  2333 H2333      2.2287     4.5540    -4.3897 Any
  2334 O2334     15.5832   -10.3524    -7.6754 Any
  2335 H2335     15.2089    -9.4861    -7.7662 Any
  2336 H2336     15.3511   -10.6215    -6.7964 Any
  2337 O2337     11.9410    18.3369   -11.3637 Any
  2338 H2338     12.7665    18.2025   -11.8103 Any
  2339 H2339     12.1845    18.6239   -10.4936 Any
  2340 O2340     -7.8846    -8.6605    13.6095 Any
  2341 H2341     -7.8125    -7.7231    13.7320 Any
  2342 H2342     -8.7616    -8.8724    13.9008 Any
  2343 O2343     19.2668    -9.5839   -12.7525 Any
  2344 H2344     19.7477   -10.2521   -13.2227 Any
  2345 H2345     18.5844    -9.3141   -13.3529 Any
  2346 O2346    -19.4924    -7.6521   -16.6501 Any
  2347 H2347    -19.2181    -7.2744   -15.8249 Any
  2348 H2348    -18.7153    -8.0777   -16.9876 Any
  2349 O2349      1.7126    -9.8791   -10.3489 Any
  2350 H2350      1.5506    -9.2465    -9.6615 Any
  2351 H2351      2.5056   -10.3244   -10.0811 Any
  2352 O2352      1.7930     7.5762    12.2112 Any
  2353 H2353      2.2434     8.4100    12.2406 Any
  2354 H2354      1.5569     7.4647    11.2997 Any
  2355 O2355     17.0728     8.1550    -9.1021 Any
  2356 H2356     17.9994     8.3561    -9.1036 Any
  2357 H2357     17.0071     7.3374    -8.6266 Any
  2358 O2358     -7.8225    19.1828     5.1930 Any
  2359 H2359     -8.5896    19.7187     5.0403 Any
  2360 H2360     -8.0887    18.5722     5.8677 Any
  2361 O2361     19.4737   -15.7002   -13.0118 Any
  2362 H2362     19.0027   -15.0907   -13.5645 Any
  2363 H2363     18.7982   -16.2372   -12.6191 Any
  2364 O2364    -19.5614    13.9019   -19.5735 Any
  2365 H2365    -19.8183    13.0202   -19.3380 Any
  2366 H2366    -19.7533    13.9669   -20.4997 Any
  2367 O2367     -8.3502     2.8000    -6.3098 Any
  2368 H2368     -9.1948     2.3783    -6.3977 Any
  2369 H2369     -7.7385     2.1936    -6.7061 Any
  2370 O2370    -19.9847    19.1504     4.4193 Any
  2371 H2371    -20.1114    19.6075     5.2402 Any
  2372 H2372    -19.3201    19.6528     3.9668 Any
  2373 O2373     15.9236    14.5031    11.0581 Any
  2374 H2374     16.8382    14.5938    11.2908 Any
  2375 H2375     15.6555    15.3752    10.8003 Any
  2376 O2376     16.8669     8.4251   -18.9842 Any
  2377 H2377     17.3442     7.6155   -19.1092 Any
  2378 H2378     17.2246     9.0155   -19.6342 Any
  2379 O2379     -7.5647   -11.4769    -4.4892 Any
  2380 H2380     -7.0399   -10.6886    -4.4437 Any
  2381 H2381     -7.0782   -12.0544    -5.0626 Any
  2382 O2382      1.7121   -18.4154   -17.8696 Any
  2383 H2383      1.0741   -17.7167   -17.8089 Any
  2384 H2384      2.5202   -18.0280   -17.5602 Any
  2385 O2385      9.6561     7.3462   -17.1171 Any
  2386 H2386      9.9771     7.6563   -17.9536 Any
  2387 H2387     10.1980     6.5941   -16.9178 Any
  2388 O2388     16.9967     7.5534   -13.5577 Any
  2389 H2389     17.4697     8.3713   -13.4786 Any
  2390 H2390     16.1498     7.8003   -13.9051 Any
  2391 O2391    -17.8874    10.2364    -6.4546 Any
  2392 H2392    -17.7389    10.2711    -7.3904 Any
  2393 H2393    -17.1195    10.6435    -6.0760 Any
  2394 O2394     -4.4507    -7.1078    10.6754 Any
  2395 H2395     -3.5040    -7.0829    10.7210 Any
  2396 H2396     -4.6642    -8.0313    10.6555 Any
  2397 O2397     -1.8231     2.7744    12.8976 Any
  2398 H2398     -1.5675     2.9811    12.0083 Any
  2399 H2399     -1.1027     2.2619    13.2398 Any
  2400 O2400     11.7980    -4.6046   -15.2649 Any
  2401 H2401     12.0361    -5.1628   -15.9933 Any
  2402 H2402     12.3600    -3.8460   -15.3521 Any
  2403 O2403     15.7527   -17.4663   -18.1046 Any
  2404 H2404     16.4919   -17.1869   -17.5808 Any
  2405 H2405     15.0596   -17.6200   -17.4761 Any
  2406 O2406     19.1539    -6.1865    -5.5965 Any
  2407 H2407     19.6057    -6.8287    -5.0651 Any
  2408 H2408     18.2877    -6.5500    -5.7247 Any
  2409 O2409    -11.5622   -19.4907    -5.7801 Any
  2410 H2410    -12.3187   -18.9692    -5.5463 Any
  2411 H2411    -11.0332   -18.9160    -6.3174 Any
  2412 O2412     19.3361    -8.8300    -7.8311 Any
  2413 H2413     18.9629    -8.3075    -8.5287 Any
  2414 H2414     18.9557    -9.6906    -7.9481 Any
  2415 O2415      6.1371    -2.9924    17.5385 Any
  2416 H2416      6.9939    -2.9313    17.1371 Any
  2417 H2417      5.6138    -3.4740    16.9114 Any
  2418 O2418     19.1187    18.0586     1.9073 Any
  2419 H2419     18.4167    17.6318     2.3805 Any
  2420 H2420     19.4681    18.6926     2.5196 Any
  2421 O2421     13.8844    18.0877    16.3119 Any
  2422 H2422     14.2546    17.3378    15.8653 Any
  2423 H2423     14.1661    18.8337    15.7991 Any
  2424 O2424     12.9581    -2.8486    16.9918 Any
  2425 H2425     12.2237    -3.1327    17.5199 Any
  2426 H2426     13.7232    -3.1229    17.4799 Any
  2427 O2427     -3.2470   -16.4682   -12.1289 Any
  2428 H2428     -2.7784   -17.2848   -12.0169 Any
  2429 H2429     -4.1623   -16.7152   -12.1199 Any
  2430 O2430      7.8393    -4.6330    -1.6696 Any
  2431 H2431      7.5347    -5.3481    -1.1268 Any
  2432 H2432      8.7000    -4.4259    -1.3302 Any
  2433 O2433      6.8673     1.8592   -17.6081 Any
  2434 H2434      7.1380     1.9789   -16.7074 Any
  2435 H2435      7.6210     2.1208   -18.1204 Any
  2436 O2436     16.5152     2.4234   -12.5242 Any
  2437 H2437     15.5843     2.3926   -12.7017 Any
  2438 H2438     16.6127     3.1129   -11.8809 Any
  2439 O2439     -6.1917    -9.5666     7.7149 Any
  2440 H2440     -6.1349    -9.1164     8.5474 Any
  2441 H2441     -6.7179   -10.3345     7.8944 Any
  2442 O2442      6.9488    -8.9025    14.4354 Any
  2443 H2443      6.7901    -9.8280    14.3042 Any
  2444 H2444      6.6526    -8.7328    15.3199 Any
  2445 O2445     10.7275    15.4001    -6.4865 Any
  2446 H2446      9.9346    14.9414    -6.7307 Any
  2447 H2447     11.0768    14.9021    -5.7593 Any
  2448 O2448    -17.1286   -14.6051    13.7905 Any
  2449 H2449    -17.0885   -15.5514    13.7471 Any
  2450 H2450    -17.1203   -14.4084    14.7180 Any
  2451 O2451     -2.2518    17.4844   -13.9606 Any
  2452 H2452     -2.5223    18.3741   -14.1452 Any
  2453 H2453     -2.8175    17.2051   -13.2529 Any
  2454 O2454     -4.9696    11.4321    -8.6082 Any
  2455 H2455     -5.1046    10.7670    -7.9461 Any
  2456 H2456     -5.0246    10.9642    -9.4310 Any
  2457 O2457     -6.0722   -16.0785    -9.7292 Any
  2458 H2458     -6.6386   -16.8061    -9.9498 Any
  2459 H2459     -6.2652   -15.8934    -8.8196 Any
  2460 O2460    -13.3000     1.5250    16.9636 Any
  2461 H2461    -13.9928     2.1720    16.9464 Any
  2462 H2462    -13.7287     0.7105    16.7359 Any
  2463 O2463     -2.1161   -18.7845    -8.1225 Any
  2464 H2464     -2.8464   -18.9894    -7.5536 Any
  2465 H2465     -2.3758   -17.9880    -8.5665 Any
  2466 O2466    -19.8431     6.3185     6.0508 Any
  2467 H2467    -19.1882     6.6035     5.4274 Any
  2468 H2468    -19.5733     6.7048     6.8735 Any
  2469 O2469     11.2135    19.5299    10.3551 Any
  2470 H2470     12.0250    19.6189     9.8731 Any
  2471 H2471     11.2293    20.2409    10.9821 Any
  2472 O2472     16.7842     5.0061    10.8409 Any
  2473 H2473     17.5701     5.0789    10.3156 Any
  2474 H2474     16.3983     4.1804    10.5796 Any
  2475 O2475     -4.7165   -13.6171    12.6263 Any
  2476 H2476     -5.3696   -14.2845    12.7903 Any
  2477 H2477     -4.6218   -13.6027    11.6830 Any
  2478 O2478      3.5432   -17.0783     6.5730 Any
  2479 H2479      4.4033   -17.3656     6.8498 Any
  2480 H2480      3.6946   -16.6287     5.7521 Any
  2481 O2481      7.1105    10.6396   -15.2327 Any
  2482 H2482      6.4857     9.9547   -15.0343 Any
  2483 H2483      7.9342    10.1847   -15.3489 Any
  2484 O2484     16.9502    -6.7447    12.6849 Any
  2485 H2485     17.0949    -7.1978    11.8647 Any
  2486 H2486     16.0952    -6.3464    12.5897 Any
  2487 O2487     14.5392   -19.9991   -11.4649 Any
  2488 H2488     15.2604   -20.4659   -11.0641 Any
  2489 H2489     14.3357   -19.3039   -10.8532 Any
  2490 O2490     10.5492    -4.2511     4.8805 Any
  2491 H2491     10.9599    -5.1050     4.8479 Any
  2492 H2492      9.8340    -4.3067     4.2605 Any
  2493 O2493     -0.6366    -9.2927    14.7641 Any
  2494 H2494     -1.2759    -9.3577    15.4612 Any
  2495 H2495     -0.6321    -8.3741    14.5295 Any
  2496 O2496     -4.8151     5.3475    11.2761 Any
  2497 H2497     -5.6700     5.7265    11.1198 Any
  2498 H2498     -4.7702     5.2405    12.2171 Any
  2499 O2499      4.4021    -5.3926     5.9010 Any
  2500 H2500      4.2877    -6.0746     6.5495 Any
  2501 H2501      4.4447    -4.5900     6.4039 Any
  2502 O2502     -5.0015   -15.9312   -19.3142 Any
  2503 H2503     -4.5695   -15.6538   -20.1113 Any
  2504 H2504     -5.4027   -15.1426   -18.9736 Any
  2505 O2505     15.5408     0.7906   -16.2135 Any
  2506 H2506     16.4266     1.0831   -16.3830 Any
  2507 H2507     15.5658     0.4556   -15.3269 Any
  2508 O2508      6.2005    -5.9938    14.1783 Any
  2509 H2509      5.6418    -6.7345    13.9832 Any
  2510 H2510      6.9105    -6.3589    14.6898 Any
  2511 O2511      0.6744     8.1769    -0.0666 Any
  2512 H2512     -0.0432     8.5458     0.4312 Any
  2513 H2513      0.3835     8.2149    -0.9682 Any
  2514 O2514    -18.5340    15.4255    -5.9713 Any
  2515 H2515    -18.6100    16.3370    -5.7216 Any
  2516 H2516    -17.8386    15.0855    -5.4240 Any
  2517 O2517     10.2126   -12.2393     3.3918 Any
  2518 H2518     10.1739   -13.1548     3.6350 Any
  2519 H2519     10.9546   -11.8961     3.8720 Any
  2520 O2520     14.8434   -10.8535   -10.9884 Any
  2521 H2521     14.9286    -9.9151   -10.8833 Any
  2522 H2522     14.8919   -11.1977   -10.1063 Any
  2523 O2523     -4.6238   -13.3656    -4.7614 Any
  2524 H2524     -5.2596   -14.0685    -4.7842 Any
  2525 H2525     -3.9956   -13.5903    -5.4351 Any
  2526 O2526    -17.3924    17.8501    19.3718 Any
  2527 H2527    -16.7332    17.9334    20.0481 Any
  2528 H2528    -17.9919    18.5666    19.5336 Any
  2529 O2529     13.3953    16.9807    18.8759 Any
  2530 H2530     12.5200    17.2877    19.0723 Any
  2531 H2531     13.5507    17.2591    17.9830 Any
  2532 O2532    -14.0894    -2.6746    -2.5002 Any
  2533 H2533    -13.4973    -3.1623    -3.0573 Any
  2534 H2534    -13.5300    -2.0739    -2.0257 Any
  2535 O2535     -7.6714     7.8320     3.5746 Any
  2536 H2536     -8.2553     8.1452     2.8964 Any
  2537 H2537     -8.2442     7.5965     4.2924 Any
  2538 O2538      1.3993    -3.6188     6.5493 Any
  2539 H2539      2.3139    -3.7781     6.3566 Any
  2540 H2540      0.9405    -4.3420     6.1427 Any
  2541 O2541    -17.0821    12.1163   -17.9021 Any
  2542 H2542    -16.2809    12.1723   -18.4058 Any
  2543 H2543    -17.5691    12.8938   -18.1414 Any
  2544 O2544    -18.2037    13.2810    16.1498 Any
  2545 H2545    -19.0936    13.2024    15.8323 Any
  2546 H2546    -18.2606    13.8961    16.8691 Any
  2547 O2547     19.2261    19.0241    -8.9200 Any
  2548 H2548     19.4299    18.1545    -9.2379 Any
  2549 H2549     20.0242    19.3180    -8.5009 Any
  2550 O2550     -0.4786    18.9171     5.5299 Any
  2551 H2551     -0.3423    19.2990     6.3870 Any
  2552 H2552     -1.2679    18.4001     5.6220 Any
  2553 O2553     -2.6542   -15.9908     2.6450 Any
  2554 H2554     -2.2443   -16.8061     2.3878 Any
  2555 H2555     -2.2891   -15.7993     3.4988 Any
  2556 O2556     -4.6380   -17.1595     8.8302 Any
  2557 H2557     -5.2049   -16.4369     8.5947 Any
  2558 H2558     -4.9306   -17.8791     8.2866 Any
  2559 O2559    -16.4670    -2.2173    14.2517 Any
  2560 H2560    -17.1929    -2.7957    14.0583 Any
  2561 H2561    -16.5250    -2.0658    15.1858 Any
  2562 O2562     -7.5915    16.4690    13.7495 Any
  2563 H2563     -7.3066    15.8077    13.1327 Any
  2564 H2564     -8.5023    16.2641    13.9150 Any
  2565 O2565     11.6004    -4.5371   -18.8908 Any
  2566 H2566     12.2962    -3.9688   -18.5878 Any
  2567 H2567     11.6375    -5.2882   -18.3135 Any
  2568 O2568     -8.5268   -10.6260   -12.1425 Any
  2569 H2569     -8.4881   -10.0659   -12.9065 Any
  2570 H2570     -7.6419   -10.6264   -11.8020 Any
  2571 O2571     17.3846   -14.3415    10.7480 Any
  2572 H2572     17.4718   -15.2846    10.7055 Any
  2573 H2573     18.2328   -14.0114    10.4825 Any
  2574 O2574     16.9088   -11.7603     8.1061 Any
  2575 H2575     16.0625   -12.0457     8.4244 Any
  2576 H2576     16.7737   -11.5987     7.1817 Any
  2577 O2577     14.0607     5.5169     9.6181 Any
  2578 H2578     14.2983     5.6350     8.7079 Any
  2579 H2579     14.8502     5.1920    10.0305 Any
  2580 O2580     11.2670    -3.2464     7.4397 Any
  2581 H2581     10.9248    -3.8305     6.7758 Any
  2582 H2582     11.2572    -3.7596     8.2368 Any
  2583 O2583    -14.4589     3.0967    -0.2931 Any
  2584 H2584    -14.7058     3.9540    -0.6142 Any
  2585 H2585    -15.1942     2.5395    -0.5114 Any
  2586 O2586     13.8718    -9.2093   -16.5380 Any
  2587 H2587     13.2194    -9.6845   -17.0354 Any
  2588 H2588     14.2306    -9.8518   -15.9401 Any
  2589 O2589      9.7229     3.4897     9.4597 Any
  2590 H2590      9.8145     2.5468     9.4212 Any
  2591 H2591      9.2655     3.6518    10.2742 Any
  2592 O2592     -1.6549     6.7223     5.7210 Any
  2593 H2593     -2.4773     6.7207     5.2494 Any
  2594 H2594     -1.0554     6.2522     5.1566 Any
  2595 O2595     -2.5083    17.5608    -5.4978 Any
  2596 H2596     -3.4086    17.5386    -5.7945 Any
  2597 H2597     -2.0369    17.0306    -6.1267 Any
  2598 O2598    -14.5310    12.5147    15.2230 Any
  2599 H2599    -15.4322    12.2205    15.2368 Any
  2600 H2600    -14.4861    13.1112    14.4874 Any
  2601 O2601      5.1764   -15.4211    14.8409 Any
  2602 H2602      5.2617   -15.2235    15.7643 Any
  2603 H2603      6.0572   -15.6301    14.5594 Any
  2604 O2604     18.5436   -18.0038    -9.2571 Any
  2605 H2605     18.9298   -18.8689    -9.2214 Any
  2606 H2606     19.2845   -17.4125    -9.2772 Any
  2607 O2607     -2.3734     3.5224     4.8814 Any
  2608 H2608     -1.4643     3.3173     4.7075 Any
  2609 H2609     -2.5762     3.0505     5.6783 Any
  2610 O2610     15.3069     5.9229     7.2771 Any
  2611 H2611     15.2398     5.3059     6.5604 Any
  2612 H2612     14.7270     6.6330     7.0354 Any
  2613 O2613    -13.0224     7.2310    16.7690 Any
  2614 H2614    -12.5406     8.0472    16.7924 Any
  2615 H2615    -12.4468     6.6023    17.1842 Any
  2616 O2616     16.0247    -7.7147   -17.0823 Any
  2617 H2617     15.2060    -8.1808   -17.1884 Any
  2618 H2618     15.7857    -6.7985   -17.1317 Any
  2619 O2619     13.7132    -3.1005    -5.8636 Any
  2620 H2620     13.9741    -2.2499    -6.1911 Any
  2621 H2621     13.9834    -3.7091    -6.5384 Any
  2622 O2622      3.1109   -13.0507   -11.8622 Any
  2623 H2623      3.8089   -13.5301   -11.4357 Any
  2624 H2624      3.4378   -12.1632   -11.9297 Any
  2625 O2625     -9.0535   -13.2407   -17.1330 Any
  2626 H2626     -8.9583   -12.4812   -16.5736 Any
  2627 H2627     -9.7952   -13.7097   -16.7742 Any
  2628 O2628     -8.2155     5.3788   -13.7901 Any
  2629 H2629     -9.1200     5.6575   -13.7348 Any
  2630 H2630     -8.2287     4.6433   -14.3882 Any
  2631 O2631    -19.2508   -18.4308     7.1126 Any
  2632 H2632    -19.9227   -17.9255     7.5509 Any
  2633 H2633    -18.7613   -18.8372     7.8155 Any
  2634 O2634    -10.5117     2.3134    -2.9219 Any
  2635 H2635     -9.9231     1.6211    -2.6512 Any
  2636 H2636    -11.2343     2.2648    -2.3099 Any
  2637 O2637      8.0882     8.4980    15.4371 Any
  2638 H2638      8.5948     8.1599    14.7105 Any
  2639 H2639      7.3458     7.9120    15.5032 Any
  2640 O2640     19.8733     6.2467   -17.3066 Any
  2641 H2641     20.5008     6.0937   -16.6126 Any
  2642 H2642     19.0489     6.3797   -16.8577 Any
  2643 O2643     -2.7162    -6.9690     5.5591 Any
  2644 H2644     -2.2603    -6.3777     4.9748 Any
  2645 H2645     -3.5698    -6.5744     5.6794 Any
  2646 O2646     18.5232    14.4109    13.4778 Any
  2647 H2647     18.2781    15.1799    13.9751 Any
  2648 H2648     19.4706    14.3959    13.5133 Any
  2649 O2649     -2.1200    -9.5423    -9.2647 Any
  2650 H2650     -2.4055   -10.4464    -9.2589 Any
  2651 H2651     -2.1900    -9.2759   -10.1719 Any
  2652 O2652     -2.0528    -0.5845    -4.6477 Any
  2653 H2653     -1.5367    -1.0404    -5.2993 Any
  2654 H2654     -1.4914     0.1181    -4.3476 Any
  2655 O2655     16.8548    17.5104     4.2101 Any
  2656 H2656     16.0170    17.7242     3.8212 Any
  2657 H2657     16.6707    16.7806     4.7868 Any
  2658 O2658    -15.6122   -10.2329   -15.4672 Any
  2659 H2659    -15.0813   -10.9489   -15.7902 Any
  2660 H2660    -15.5675   -10.3098   -14.5232 Any
  2661 O2661     -5.0452    10.0620     5.0445 Any
  2662 H2662     -5.8420    10.2162     5.5346 Any
  2663 H2663     -5.1105     9.1597     4.7609 Any
  2664 O2664     -0.1340    10.5958    -3.3029 Any
  2665 H2665     -0.5900    10.9713    -4.0444 Any
  2666 H2666     -0.6427    10.8641    -2.5492 Any
  2667 O2667      9.7351   -18.2488     2.7097 Any
  2668 H2668      9.1155   -17.5379     2.8079 Any
  2669 H2669      9.2536   -19.0226     2.9709 Any
  2670 O2670     17.5322    -0.8702    18.2314 Any
  2671 H2671     16.9845    -1.1621    17.5147 Any
  2672 H2672     17.3942     0.0670    18.2706 Any
  2673 O2673     -4.0798    10.7981     0.4309 Any
  2674 H2674     -4.3447    10.0962     1.0105 Any
  2675 H2675     -3.6053    11.4011     0.9878 Any
  2676 O2676     14.5596    11.6901     1.8544 Any
  2677 H2677     15.4804    11.4728     1.9169 Any
  2678 H2678     14.2116    11.5040     2.7165 Any
  2679 O2679     -4.7609     1.1050    13.8336 Any
  2680 H2680     -4.7453     0.8070    12.9337 Any
  2681 H2681     -4.1979     1.8677    13.8421 Any
  2682 O2682    -14.2843    -0.2347    13.4466 Any
  2683 H2683    -15.0062    -0.6438    13.9054 Any
  2684 H2684    -13.5336    -0.3773    14.0078 Any
  2685 O2685    -11.8541    -0.9253    14.3880 Any
  2686 H2686    -12.2917    -1.6103    14.8760 Any
  2687 H2687    -11.1286    -1.3624    13.9619 Any
  2688 O2688     -3.7329    15.0353     9.9375 Any
  2689 H2689     -3.9841    14.1325    10.0812 Any
  2690 H2690     -3.2980    15.2925    10.7398 Any
  2691 O2691     -8.5943   -16.8874    18.6131 Any
  2692 H2692     -9.3364   -17.4749    18.5579 Any
  2693 H2693     -8.4634   -16.7552    19.5428 Any
  2694 O2694     18.5467     0.4517    10.3730 Any
  2695 H2695     19.2737     0.2372     9.8035 Any
  2696 H2696     18.9239     1.0074    11.0422 Any
  2697 O2697      2.0442     2.6667   -16.2208 Any
  2698 H2698      2.2561     2.5224   -15.3081 Any
  2699 H2699      2.8379     3.0244   -16.5963 Any
  2700 O2700     16.9794   -20.2322    11.7331 Any
  2701 H2701     17.4813   -19.7621    12.3857 Any
  2702 H2702     17.3258   -19.9313    10.9034 Any
  2703 O2703    -15.5491   -16.5701    15.7728 Any
  2704 H2704    -15.7910   -17.4288    15.4518 Any
  2705 H2705    -14.7800   -16.3357    15.2703 Any
  2706 O2706      6.6468    -0.7725   -11.2325 Any
  2707 H2707      6.3236    -1.6580   -11.1315 Any
  2708 H2708      7.5003    -0.7816   -10.8197 Any
  2709 O2709    -18.8441    13.7120    13.2404 Any
  2710 H2710    -17.9837    13.9402    12.9142 Any
  2711 H2711    -18.8280    12.7670    13.3148 Any
  2712 O2712     -9.5646     7.5631    19.0364 Any
  2713 H2713     -8.7976     7.5246    19.5924 Any
  2714 H2714     -9.6047     6.7093    18.6260 Any
  2715 O2715     -7.3732    -2.6904     7.3975 Any
  2716 H2716     -7.3332    -3.3780     8.0490 Any
  2717 H2717     -6.5248    -2.2696     7.4425 Any
  2718 O2718     18.3782     3.2374     7.4467 Any
  2719 H2719     17.9471     2.4162     7.6434 Any
  2720 H2720     19.2213     2.9855     7.0936 Any
  2721 O2721    -10.0476     8.5799     2.1678 Any
  2722 H2722    -10.0849     9.5272     2.1576 Any
  2723 H2723    -10.5824     8.3122     1.4322 Any
  2724 O2724     14.0537   -10.2567    -5.1551 Any
  2725 H2725     13.5304    -9.5443    -5.4978 Any
  2726 H2726     14.4660    -9.8985    -4.3801 Any
  2727 O2727    -10.1430    -6.5674     4.7683 Any
  2728 H2728     -9.7430    -6.5447     3.9091 Any
  2729 H2729     -9.4509    -6.3044     5.3606 Any
  2730 O2730    -10.7128   -13.4131    13.1929 Any
  2731 H2731    -11.0488   -12.8247    13.8560 Any
  2732 H2732     -9.7913   -13.5015    13.3972 Any
  2733 O2733      7.9380   -19.7080     4.2136 Any
  2734 H2734      7.6528   -19.3939     5.0615 Any
  2735 H2735      7.1405   -19.7834     3.7065 Any
  2736 O2736      4.8085    -3.2574     7.1549 Any
  2737 H2737      5.4460    -2.6542     6.7962 Any
  2738 H2738      4.8107    -3.0806     8.0864 Any
  2739 O2739      8.2201    -5.5157   -13.8267 Any
  2740 H2740      8.7167    -6.2034   -13.4031 Any
  2741 H2741      8.0747    -4.8723   -13.1455 Any
  2742 O2742    -14.7286   -17.6862    -7.8065 Any
  2743 H2743    -15.5772   -17.6182    -8.2237 Any
  2744 H2744    -14.8089   -17.1678    -7.0168 Any
  2745 O2745     18.2883    -2.2349    -5.8651 Any
  2746 H2746     18.1051    -1.6338    -6.5750 Any
  2747 H2747     18.7008    -1.6999    -5.1999 Any
  2748 O2748     -6.8198     8.8969   -15.1369 Any
  2749 H2749     -7.6722     9.2338   -15.3795 Any
  2750 H2750     -6.9192     8.6242   -14.2344 Any
  2751 O2751      4.9556     4.8065     5.4071 Any
  2752 H2752      4.4468     4.0085     5.3509 Any
  2753 H2753      5.0861     5.0701     4.5058 Any
  2754 O2754    -14.0494    -2.3941     9.6682 Any
  2755 H2755    -14.1219    -3.1809     9.1442 Any
  2756 H2756    -14.8184    -2.4052    10.2227 Any
  2757 O2757     -5.7447    -7.6964   -16.4910 Any
  2758 H2758     -4.8983    -7.5709   -16.0827 Any
  2759 H2759     -5.5473    -8.0754   -17.3374 Any
  2760 O2760     -2.1524    -6.5002    -5.4075 Any
  2761 H2761     -2.2300    -6.7587    -4.4986 Any
  2762 H2762     -2.9214    -6.8646    -5.8256 Any
  2763 O2763      3.9205    12.8913    18.5566 Any
  2764 H2764      3.0231    13.1927    18.6095 Any
  2765 H2765      4.4337    13.6080    18.9055 Any
  2766 O2766      5.6170     8.8863    12.6724 Any
  2767 H2767      5.4757     8.5857    11.7843 Any
  2768 H2768      5.8661     9.7963    12.5793 Any
  2769 O2769    -13.8452     4.3507    15.4860 Any
  2770 H2770    -14.1763     5.2303    15.6110 Any
  2771 H2771    -14.4936     3.9274    14.9389 Any
  2772 O2772     12.2464   -14.7330   -13.2241 Any
  2773 H2773     12.3705   -15.0717   -14.1010 Any
  2774 H2774     11.8397   -13.8860   -13.3510 Any
  2775 O2775      7.2025    13.1941     1.3007 Any
  2776 H2776      7.5886    13.0384     2.1525 Any
  2777 H2777      7.6743    12.6160     0.7158 Any
  2778 O2778    -10.6323   -16.2557    11.9539 Any
  2779 H2779     -9.9184   -16.1015    11.3494 Any
  2780 H2780    -10.6546   -15.4806    12.4994 Any
  2781 O2781      8.8174   -18.7492   -11.0306 Any
  2782 H2782      8.8631   -19.4904   -11.6200 Any
  2783 H2783      8.6188   -18.0107   -11.5911 Any
  2784 O2784    -13.0509   -16.1856   -12.2383 Any
  2785 H2785    -12.3167   -16.6680   -11.8818 Any
  2786 H2786    -13.7805   -16.4124   -11.6769 Any
  2787 O2787    -11.1247   -16.2657    -0.4413 Any
  2788 H2788    -10.2548   -16.0921    -0.7759 Any
  2789 H2789    -11.5144   -16.8475    -1.0805 Any
  2790 O2790     10.3863    15.3343    -2.0008 Any
  2791 H2791     10.0854    15.7145    -1.1861 Any
  2792 H2792     10.6359    14.4485    -1.7728 Any
  2793 O2793      6.7821     6.5882   -14.0827 Any
  2794 H2794      6.1149     7.2483   -13.9482 Any
  2795 H2795      6.4178     5.7999   -13.7021 Any
  2796 O2796      8.8946    -3.1008     9.6720 Any
  2797 H2797      8.4345    -2.8188     8.8925 Any
  2798 H2798      9.6205    -2.4963     9.7523 Any
  2799 O2799     -6.9569   -10.8172    15.3730 Any
  2800 H2800     -6.1874   -10.3443    15.0847 Any
  2801 H2801     -7.6813   -10.3728    14.9527 Any
  2802 O2802     -7.4853     2.8021     5.8912 Any
  2803 H2803     -6.8738     3.5246     5.8362 Any
  2804 H2804     -6.9388     2.0275     5.9034 Any
  2805 O2805      8.8920   -17.7442    16.3922 Any
  2806 H2806      9.1658   -17.2200    17.1332 Any
  2807 H2807      9.7014   -18.0425    15.9989 Any
  2808 O2808     -6.2037    -2.4301     3.9122 Any
  2809 H2809     -6.8776    -2.6411     3.2796 Any
  2810 H2810     -5.7306    -1.7059     3.5241 Any
  2811 O2811     -1.0043    16.0145    10.2052 Any
  2812 H2812     -0.8172    16.3679    11.0649 Any
  2813 H2813     -1.1277    15.0858    10.3508 Any
  2814 O2814     -9.0949    -6.9437   -10.5291 Any
  2815 H2815     -9.2027    -7.1521   -11.4477 Any
  2816 H2816     -8.1933    -7.1668   -10.3382 Any
  2817 O2817     -8.6241   -15.3670     0.1134 Any
  2818 H2818     -9.2222   -15.6419     0.7957 Any
  2819 H2819     -8.4577   -14.4518     0.2967 Any
  2820 O2820      3.1657    -7.3554    -5.7786 Any
  2821 H2821      3.9872    -7.6193    -6.1714 Any
  2822 H2822      3.4126    -6.7440    -5.0973 Any
  2823 O2823     -0.5834   -18.7709     0.8768 Any
  2824 H2824     -0.5864   -19.3631     1.6172 Any
  2825 H2825      0.2055   -18.2565     0.9862 Any
  2826 O2826    -12.6624     4.8135    -3.4062 Any
  2827 H2827    -12.1198     4.4865    -2.7008 Any
  2828 H2828    -13.5464     4.7712    -3.0663 Any
  2829 O2829    -17.8999     5.6397     0.1634 Any
  2830 H2830    -17.1834     5.3912    -0.4055 Any
  2831 H2831    -18.5324     4.9396     0.0700 Any
  2832 O2832      9.0261   -12.9479    -4.5009 Any
  2833 H2833      8.0891   -13.0820    -4.5554 Any
  2834 H2834      9.1262   -12.1873    -3.9439 Any
  2835 O2835     -9.8376    19.6359    -9.0124 Any
  2836 H2836     -9.5580    19.2397    -8.1977 Any
  2837 H2837     -9.0735    19.5947    -9.5722 Any
  2838 O2838      1.2742    16.2339     7.1445 Any
  2839 H2839      1.1788    17.1643     6.9892 Any
  2840 H2840      1.2590    16.1469     8.0885 Any
  2841 O2841     -5.1362    17.8040   -13.2429 Any
  2842 H2842     -4.8102    18.1140   -14.0774 Any
  2843 H2843     -5.9134    18.3230   -13.0829 Any
  2844 O2844     18.4425    -1.7862     4.4270 Any
  2845 H2845     19.2992    -2.0669     4.7203 Any
  2846 H2846     18.2229    -2.3843     3.7249 Any
  2847 O2847     20.0582   -18.1857    -2.0456 Any
  2848 H2848     19.5013   -17.8556    -2.7383 Any
  2849 H2849     19.9802   -19.1286    -2.1058 Any
  2850 O2850     14.8125    10.0145    -0.5508 Any
  2851 H2851     14.6534    10.0468     0.3833 Any
  2852 H2852     15.7489    10.1350    -0.6374 Any
  2853 O2853     16.1372    11.9722    -6.5791 Any
  2854 H2854     15.2616    12.2604    -6.8010 Any
  2855 H2855     16.1040    11.8050    -5.6464 Any
  2856 O2856    -17.2537     0.5398   -15.3610 Any
  2857 H2857    -17.4516     0.2606   -16.2452 Any
  2858 H2858    -16.3159     0.6789   -15.3590 Any
  2859 O2859      9.9751     8.8439    -3.9905 Any
  2860 H2860      9.6460     8.4854    -4.8042 Any
  2861 H2861      9.1977     9.0392    -3.4842 Any
  2862 O2862      3.6314    -6.0565     8.5060 Any
  2863 H2863      3.7097    -6.4347     9.3719 Any
  2864 H2864      3.6070    -5.1207     8.6558 Any
  2865 O2865      6.7010   -10.1393    17.2495 Any
  2866 H2866      6.4720   -11.0412    17.4314 Any
  2867 H2867      6.0729    -9.6294    17.7439 Any
  2868 O2868     -4.8761    -5.4511   -13.2809 Any
  2869 H2869     -5.5995    -5.2360   -13.8548 Any
  2870 H2870     -4.3281    -4.6775   -13.2875 Any
  2871 O2871    -12.6693    10.3740   -15.6067 Any
  2872 H2872    -12.6023    11.0552   -16.2628 Any
  2873 H2873    -12.9062    10.8319   -14.8109 Any
  2874 O2874    -10.7620     1.9794    -5.6242 Any
  2875 H2875    -10.7814     2.2807    -4.7255 Any
  2876 H2876    -11.1786     2.6737    -6.1175 Any
  2877 O2877    -16.2256     9.3935   -12.5246 Any
  2878 H2878    -15.3094     9.3023   -12.7511 Any
  2879 H2879    -16.5138     8.5101   -12.3364 Any
  2880 O2880      6.8444    -9.1434    -9.2193 Any
  2881 H2881      6.8965    -8.3114    -9.6710 Any
  2882 H2882      7.7295    -9.3097    -8.9229 Any
  2883 O2883      7.6853   -12.4602    -8.8317 Any
  2884 H2884      6.8944   -12.3383    -8.3232 Any
  2885 H2885      8.3830   -12.4659    -8.1897 Any
  2886 O2886     11.6196     1.9942     4.8838 Any
  2887 H2887     11.5758     1.1748     5.3587 Any
  2888 H2888     11.6314     2.6604     5.5582 Any
  2889 O2889    -13.4750    10.5974    18.9124 Any
  2890 H2890    -13.2703    10.5162    17.9902 Any
  2891 H2891    -13.0559     9.8491    19.3165 Any
  2892 O2892     -4.3715     7.7004   -16.3406 Any
  2893 H2893     -4.4805     8.6412   -16.3846 Any
  2894 H2894     -4.1205     7.5313   -15.4421 Any
  2895 O2895      9.6428     0.5687   -15.3773 Any
  2896 H2896      8.9636     0.0955   -15.8395 Any
  2897 H2897      9.1884     1.2847   -14.9533 Any
  2898 O2898     18.4306   -10.4038    19.6349 Any
  2899 H2899     19.0741    -9.9580    19.1001 Any
  2900 H2900     18.3313    -9.8512    20.3988 Any
  2901 O2901      7.3935    -1.5645   -16.1660 Any
  2902 H2902      6.7935    -1.6032   -16.8990 Any
  2903 H2903      6.8994    -1.9111   -15.4348 Any
  2904 O2904     -1.7623     1.5581    18.9704 Any
  2905 H2905     -1.1452     1.9915    19.5450 Any
  2906 H2906     -1.2931     0.8019    18.6433 Any
  2907 O2907      1.8133   -18.5346    16.3030 Any
  2908 H2908      1.9007   -18.9708    17.1402 Any
  2909 H2909      2.6834   -18.2109    16.1107 Any
  2910 O2910      3.8730   -15.4345     4.4883 Any
  2911 H2911      4.1406   -14.5277     4.4174 Any
  2912 H2912      4.2378   -15.8516     3.7190 Any
  2913 O2913     14.1898    15.1439   -12.6996 Any
  2914 H2914     14.3609    16.0724   -12.7861 Any
  2915 H2915     13.4271    14.9904   -13.2415 Any
  2916 O2916    -10.0680    -9.2493     4.2181 Any
  2917 H2917    -10.0437    -8.3127     4.3634 Any
  2918 H2918     -9.7436    -9.6245     5.0262 Any
  2919 O2919     -8.1541   -13.5409    13.8245 Any
  2920 H2920     -8.0540   -14.2264    14.4717 Any
  2921 H2921     -7.6990   -12.7957    14.1941 Any
  2922 O2922     -0.5699    -3.5160    15.0896 Any
  2923 H2923     -1.3391    -2.9993    14.8891 Any
  2924 H2924     -0.9036    -4.2667    15.5630 Any
  2925 O2925      1.1158    -9.0781     3.7277 Any
  2926 H2926      0.3536    -9.6077     3.9209 Any
  2927 H2927      1.8457    -9.6805     3.7853 Any
  2928 O2928     18.3556     9.9982   -13.7703 Any
  2929 H2929     18.3704    10.4274   -14.6156 Any
  2930 H2930     18.2171    10.7006   -13.1486 Any
  2931 O2931      0.3704    -6.6309    18.7241 Any
  2932 H2932      0.4417    -6.5886    19.6686 Any
  2933 H2933      0.0347    -7.5001    18.5489 Any
  2934 O2934      3.5498    -6.7673    11.3418 Any
  2935 H2935      3.7711    -6.9004    12.2540 Any
  2936 H2936      2.8204    -7.3525    11.1855 Any
  2937 O2937      3.4139    14.8514     3.8926 Any
  2938 H2938      4.2033    14.5940     4.3503 Any
  2939 H2939      2.8481    14.0926     3.9477 Any
  2940 O2940    -19.8632   -12.0521    -5.4840 Any
  2941 H2941    -19.1645   -11.4253    -5.3508 Any
  2942 H2942    -19.6405   -12.4884    -6.2958 Any
  2943 O2943    -12.7205     9.6361    -4.6224 Any
  2944 H2944    -13.0895     9.3834    -3.7864 Any
  2945 H2945    -12.1261    10.3454    -4.4161 Any
  2946 O2946     -3.6189     1.4842   -11.5762 Any
  2947 H2947     -3.3790     1.4990   -12.4933 Any
  2948 H2948     -3.6967     2.3978   -11.3352 Any
  2949 O2949     12.0520    19.1963    -8.7959 Any
  2950 H2950     12.3292    19.9483    -8.2894 Any
  2951 H2951     11.3842    18.7837    -8.2642 Any
  2952 O2952     -0.2195    13.3979    13.9460 Any
  2953 H2953     -0.4671    12.9378    14.7372 Any
  2954 H2954     -0.1119    12.7153    13.2969 Any
  2955 O2955    -17.4284    13.0805     9.1477 Any
  2956 H2956    -18.2767    12.6584     9.1782 Any
  2957 H2957    -16.8282    12.4352     9.4974 Any
  2958 O2958     19.9567    -0.1836    15.0297 Any
  2959 H2959     19.2438     0.4329    15.1330 Any
  2960 H2960     20.5863     0.2690    14.4841 Any
  2961 O2961    -11.3367    -0.1770     7.8079 Any
  2962 H2962    -11.5711    -0.9545     7.3185 Any
  2963 H2963    -12.1366     0.3304     7.8468 Any
  2964 O2964      6.8434    10.9461    -5.3667 Any
  2965 H2965      7.0094    11.8765    -5.2913 Any
  2966 H2966      7.4441    10.6504    -6.0380 Any
  2967 O2967     -0.4778     1.7987   -16.8945 Any
  2968 H2968     -0.8319     1.1987   -16.2514 Any
  2969 H2969      0.3213     2.1247   -16.5019 Any
  2970 O2970    -11.3576    14.2769   -14.6228 Any
  2971 H2971    -11.9588    14.5025   -15.3203 Any
  2972 H2972    -11.2788    15.0703   -14.1098 Any
  2973 O2973    -19.3192    -7.1777    -1.3253 Any
  2974 H2974    -19.2381    -7.8847    -0.6989 Any
  2975 H2975    -19.7140    -6.4687    -0.8350 Any
  2976 O2976      5.5814   -18.4147   -12.9312 Any
  2977 H2977      5.9457   -18.0535   -13.7285 Any
  2978 H2978      6.0165   -19.2507   -12.8276 Any
  2979 O2979     17.8419   -11.7659     3.0029 Any
  2980 H2980     18.6029   -11.2086     2.9071 Any
  2981 H2981     17.3201   -11.5919     2.2306 Any
  2982 O2982     -3.6252     5.4897   -17.5333 Any
  2983 H2983     -3.7200     6.2582   -16.9861 Any
  2984 H2984     -4.1765     5.6627   -18.2850 Any
  2985 O2985     -6.9160    10.2517     1.6577 Any
  2986 H2986     -5.9972    10.0838     1.8206 Any
  2987 H2987     -7.2874     9.3969     1.4837 Any
  2988 O2988     -8.9189   -14.3087     3.1744 Any
  2989 H2989     -9.4808   -14.0278     3.8846 Any
  2990 H2990     -8.9541   -13.5985     2.5474 Any
  2991 O2991    -11.2090    13.7843    13.3867 Any
  2992 H2992    -11.0381    14.0817    12.5028 Any
  2993 H2993    -10.4334    13.2952    13.6278 Any
  2994 O2994     14.9836     2.4358     2.9453 Any
  2995 H2995     14.6503     2.7571     3.7727 Any
  2996 H2996     15.2216     1.5344     3.1179 Any
  2997 O2997     15.7821    -3.6202   -14.5610 Any
  2998 H2998     16.2718    -3.8848   -15.3285 Any
  2999 H2999     14.8800    -3.5923   -14.8517 Any
  3000 O3000      9.5138     9.3507    17.7654 Any
  3001 H3001      9.0427     9.0247    17.0099 Any
  3002 H3002     10.1630     9.9405    17.4054 Any
  3003 O3003     15.4523    -1.3548   -18.2493 Any
  3004 H3004     15.5416    -0.7370   -17.5357 Any
  3005 H3005     16.3370    -1.4838   -18.5651 Any
  3006 O3006      1.2005   -16.7632     1.1725 Any
  3007 H3007      1.5470   -16.1639     0.5246 Any
  3008 H3008      1.1435   -16.2487     1.9668 Any
  3009 O3009     14.3524    15.4180     6.7146 Any
  3010 H3010     13.6173    15.1555     6.1764 Any
  3011 H3011     15.1164    15.2037     6.1957 Any
  3012 O3012     15.7610    -5.0453   -17.0808 Any
  3013 H3013     14.8581    -4.9042   -17.3332 Any
  3014 H3014     16.2675    -4.7011   -17.8046 Any
  3015 O3015     10.1326    -2.3700   -13.0840 Any
  3016 H3016     10.1963    -1.4249   -13.1244 Any
  3017 H3017     10.0071    -2.6393   -13.9844 Any
  3018 O3018    -10.6265    12.8946     4.8491 Any
  3019 H3019    -10.4055    13.6590     4.3337 Any
  3020 H3020    -10.3228    12.1612     4.3306 Any
  3021 O3021     -8.2826    -7.4197     7.1172 Any
  3022 H3022     -7.6409    -7.3367     7.8103 Any
  3023 H3023     -8.0618    -8.2337     6.6841 Any
  3024 O3024     15.8424   -17.1527    -1.3465 Any
  3025 H3025     15.5672   -16.2657    -1.5374 Any
  3026 H3026     16.0735   -17.1379    -0.4271 Any
  3027 O3027    -15.9026   -16.5293     5.5514 Any
  3028 H3028    -15.7111   -15.6712     5.1967 Any
  3029 H3029    -15.7997   -17.1195     4.8166 Any
  3030 O3030    -19.0375     9.9156   -15.5718 Any
  3031 H3031    -19.5531     9.1532   -15.3441 Any
  3032 H3032    -18.4977    10.0749   -14.8088 Any
  3033 O3033     -1.3611   -12.5917     4.1985 Any
  3034 H3034     -1.5809   -11.8411     4.7344 Any
  3035 H3035     -1.4150   -13.3309     4.7898 Any
  3036 O3036    -17.3652   -10.0399     5.2477 Any
  3037 H3037    -16.6721   -10.2810     5.8479 Any
  3038 H3038    -17.7738    -9.2832     5.6468 Any
  3039 O3039     -1.9077   -18.6460   -11.3119 Any
  3040 H3040     -1.4522   -18.0882   -10.6952 Any
  3041 H3041     -1.3110   -19.3662   -11.4677 Any
  3042 O3042     19.7817    12.8947    -3.0628 Any
  3043 H3043     19.5397    13.7076    -3.4863 Any
  3044 H3044     19.1191    12.2753    -3.3390 Any
  3045 O3045     10.3875    12.0860    -6.9688 Any
  3046 H3046      9.8057    11.3461    -6.8553 Any
  3047 H3047      9.8237    12.7902    -7.2606 Any
  3048 O3048    -13.8399   -19.7933    17.1173 Any
  3049 H3049    -14.1473   -18.9928    16.7128 Any
  3050 H3050    -14.5428   -20.4148    16.9805 Any
  3051 O3051      8.6208     8.6157    -0.7212 Any
  3052 H3052      7.8513     8.4964    -0.1804 Any
  3053 H3053      8.3707     9.2813    -1.3483 Any
  3054 O3054     12.8988    15.5967   -15.6449 Any
  3055 H3055     12.0120    15.9307   -15.6773 Any
  3056 H3056     13.0023    15.1159   -16.4555 Any
  3057 O3057     -3.4944     4.6140    -4.0322 Any
  3058 H3058     -3.6731     5.4485    -3.6191 Any
  3059 H3059     -2.5549     4.6070    -4.1590 Any
  3060 O3060     -9.9107    11.4399   -18.2903 Any
  3061 H3061    -10.7975    11.1050   -18.2739 Any
  3062 H3062     -9.4788    11.0070   -17.5657 Any
  3063 O3063     17.5571    11.3426    -3.3836 Any
  3064 H3064     16.6740    11.6742    -3.4788 Any
  3065 H3065     17.5419    10.4973    -3.8128 Any
  3066 O3066     16.2564     7.6753     9.8566 Any
  3067 H3067     16.7379     6.8619     9.9301 Any
  3068 H3068     16.2369     7.8577     8.9264 Any
  3069 O3069     17.4852    11.8974     7.1783 Any
  3070 H3070     16.5704    11.8245     6.9400 Any
  3071 H3071     17.5187    12.6356     7.7723 Any
  3072 O3072      3.8904    17.5886     8.6037 Any
  3073 H3073      3.8478    17.5478     7.6574 Any
  3074 H3074      4.3492    18.3977     8.7871 Any
  3075 O3075      2.5401    13.7749     9.6639 Any
  3076 H3076      2.2226    14.5738    10.0636 Any
  3077 H3077      3.0073    13.3299    10.3586 Any
  3078 O3078     -6.2993    -7.8439   -12.3274 Any
  3079 H3079     -6.0572    -6.9280   -12.2902 Any
  3080 H3080     -6.3726    -8.1082   -11.4198 Any
  3081 O3081     16.4047    15.6857    17.3326 Any
  3082 H3082     17.0692    16.0928    16.7925 Any
  3083 H3083     15.5867    15.8903    16.8991 Any
  3084 O3084      0.2521    -8.9478     0.3194 Any
  3085 H3085      0.1306    -9.6769     0.9132 Any
  3086 H3086      0.3012    -8.1869     0.8829 Any
  3087 O3087      0.7172     4.5965   -12.6538 Any
  3088 H3088      1.1228     5.4392   -12.4981 Any
  3089 H3089     -0.1580     4.8047   -12.9531 Any
  3090 O3090     13.2255    -7.1958    14.9458 Any
  3091 H3091     12.5577    -7.8608    15.0496 Any
  3092 H3092     12.7990    -6.5035    14.4583 Any
  3093 O3093     17.4641    -2.8397    -8.8957 Any
  3094 H3094     18.3270    -3.2285    -8.8395 Any
  3095 H3095     17.5048    -2.2782    -9.6586 Any
  3096 O3096    -10.1734    14.0938     2.1339 Any
  3097 H3097     -9.4285    13.5275     1.9814 Any
  3098 H3098    -10.1852    14.6786     1.3877 Any
  3099 O3099      5.5068    -8.0198     7.7903 Any
  3100 H3100      4.8435    -7.4010     8.0661 Any
  3101 H3101      6.1953    -7.4826     7.4211 Any
  3102 O3102    -15.8367    -7.2152     0.8401 Any
  3103 H3103    -16.2157    -6.3723     1.0519 Any
  3104 H3104    -15.9831    -7.3152    -0.0913 Any
  3105 O3105     -2.2677   -14.2149     0.4803 Any
  3106 H3106     -2.5404   -14.6126     1.2966 Any
  3107 H3107     -2.1073   -14.9474    -0.0999 Any
  3108 O3108    -14.4477    19.2104    -7.7031 Any
  3109 H3109    -13.9485    19.1733    -8.5083 Any
  3110 H3110    -14.6952    20.1216    -7.6178 Any
  3111 O3111    -10.4815    -9.4578   -17.5396 Any
  3112 H3112     -9.7527    -8.9005   -17.3006 Any
  3113 H3113    -11.2511    -8.9677   -17.2819 Any
  3114 O3114     -4.6661    -9.1111    15.2350 Any
  3115 H3115     -4.4767    -9.3698    14.3428 Any
  3116 H3116     -3.8953    -8.6347    15.5139 Any
  3117 O3117     17.7925     0.6341    -5.3303 Any
  3118 H3118     17.9454     0.4184    -6.2407 Any
  3119 H3119     18.6341     0.5111    -4.9114 Any
  3120 O3120    -11.5198   -18.1873   -14.0642 Any
  3121 H3121    -11.3868   -18.7301   -13.2983 Any
  3122 H3122    -10.7921   -17.5796   -14.0551 Any
  3123 O3123    -16.6557    17.6522    11.3238 Any
  3124 H3124    -17.0626    16.8614    10.9952 Any
  3125 H3125    -15.8196    17.6929    10.8786 Any
  3126 O3126    -19.9665    -0.8585    -4.2371 Any
  3127 H3127    -19.3979    -0.2527    -4.6937 Any
  3128 H3128    -19.7222    -0.7736    -3.3250 Any
  3129 O3129    -15.3187     7.5134    18.0698 Any
  3130 H3130    -14.4772     7.5468    17.6342 Any
  3131 H3131    -15.1229     7.1999    18.9429 Any
  3132 O3132     16.0995    -2.2587    15.8422 Any
  3133 H3133     15.1587    -2.3410    15.7586 Any
  3134 H3134     16.4216    -3.1494    15.7994 Any
  3135 O3135     -9.0996    19.2091    17.1210 Any
  3136 H3136     -9.1028    18.2703    17.2537 Any
  3137 H3137     -8.1824    19.4488    17.1354 Any
  3138 O3138     -8.3859    12.2752   -11.1403 Any
  3139 H3139     -8.7907    12.3901   -11.9899 Any
  3140 H3140     -7.6428    12.8639   -11.1487 Any
  3141 O3141     -2.2204    10.0815   -14.0280 Any
  3142 H3142     -1.8847     9.1948   -14.0283 Any
  3143 H3143     -2.0520    10.4000   -13.1510 Any
  3144 O3144      7.2320    13.6210    -5.0054 Any
  3145 H3145      6.8731    13.7340    -4.1352 Any
  3146 H3146      7.9663    14.2198    -5.0402 Any
  3147 O3147     13.5499    -1.2745    11.8985 Any
  3148 H3148     14.4931    -1.2202    11.8181 Any
  3149 H3149     13.4030    -1.5731    12.7863 Any
  3150 O3150     -3.7067    17.8499     2.6361 Any
  3151 H3151     -3.6414    16.9615     2.3117 Any
  3152 H3152     -4.5833    17.9100     2.9921 Any
  3153 O3153     15.6489    12.5729    17.6795 Any
  3154 H3154     15.2481    13.1364    17.0310 Any
  3155 H3155     15.7020    13.1081    18.4603 Any
  3156 O3156    -20.0269     8.9933    -1.9920 Any
  3157 H3157    -19.2929     9.0696    -1.3967 Any
  3158 H3158    -19.6313     8.8412    -2.8401 Any
  3159 O3159      2.6282    15.2081   -11.4701 Any
  3160 H3160      1.9196    15.8041   -11.6741 Any
  3161 H3161      2.2911    14.3510   -11.6950 Any
  3162 O3162    -17.7017   -14.7504    -7.7854 Any
  3163 H3163    -17.8883   -13.8499    -8.0162 Any
  3164 H3164    -16.9526   -14.6979    -7.2066 Any
  3165 O3165    -16.4070    10.4021    18.9108 Any
  3166 H3166    -15.4724    10.5594    18.8873 Any
  3167 H3167    -16.4978     9.5712    19.3582 Any
  3168 O3168    -13.6469   -12.1819   -19.0195 Any
  3169 H3169    -13.2472   -12.9293   -19.4443 Any
  3170 H3170    -13.3527   -11.4352   -19.5243 Any
  3171 O3171     10.1208    -9.4887     6.4304 Any
  3172 H3172      9.3154    -9.0224     6.2492 Any
  3173 H3173     10.5730    -9.5162     5.5975 Any
  3174 O3174     -8.4094    -0.2216     5.4243 Any
  3175 H3175     -8.7823     0.2817     6.1359 Any
  3176 H3176     -8.3954    -1.1138     5.7449 Any
  3177 O3177     13.9688   -14.4469    18.8755 Any
  3178 H3178     14.3677   -14.7176    19.6919 Any
  3179 H3179     13.2982   -15.0965    18.7107 Any
  3180 O3180     16.5979    17.1518    -0.7264 Any
  3181 H3181     17.0973    17.2143     0.0772 Any
  3182 H3182     17.1140    17.6255    -1.3653 Any
  3183 O3183    -15.4411    -0.4270    16.4835 Any
  3184 H3184    -15.9290    -0.8874    17.1535 Any
  3185 H3185    -15.6839     0.4827    16.5943 Any
  3186 O3186      6.3163   -12.0902    -1.1296 Any
  3187 H3187      5.6877   -12.2129    -1.8286 Any
  3188 H3188      7.0876   -12.5608    -1.4171 Any
  3189 O3189     19.2906   -15.3353    -0.9576 Any
  3190 H3190     20.0014   -15.4343    -0.3380 Any
  3191 H3191     18.5852   -15.8556    -0.5964 Any
  3192 O3192     -1.5296     0.4275    -8.5966 Any
  3193 H3193     -2.3828     0.0355    -8.7285 Any
  3194 H3194     -1.0929    -0.1516    -7.9860 Any
  3195 O3195     -3.8108    -0.8310   -18.4392 Any
  3196 H3196     -4.1795    -0.2884   -17.7546 Any
  3197 H3197     -3.1159    -1.3144   -18.0121 Any
  3198 O3198      4.3552    -0.0483     5.7154 Any
  3199 H3199      4.2828     0.8883     5.5875 Any
  3200 H3200      3.6748    -0.4171     5.1679 Any
  3201 O3201      8.5374     0.9927     5.5342 Any
  3202 H3202      8.8667     1.7179     5.0199 Any
  3203 H3203      7.7313     1.3164     5.9141 Any
  3204 O3204    -15.4368    -9.1767     7.6993 Any
  3205 H3205    -14.8581    -8.9691     6.9775 Any
  3206 H3206    -15.3716    -8.4298     8.2796 Any
  3207 O3207      0.2143     0.0480    16.6972 Any
  3208 H3208      0.6807     0.7284    17.1646 Any
  3209 H3209      0.0713     0.4082    15.8319 Any
  3210 O3210      3.5174    13.5832     6.9390 Any
  3211 H3211      2.9973    13.5410     7.7306 Any
  3212 H3212      2.9583    13.2169     6.2666 Any
  3213 O3213    -12.7876   -14.5644   -19.4091 Any
  3214 H3214    -12.0083   -15.0327   -19.6781 Any
  3215 H3215    -13.4529   -15.2351   -19.3284 Any
  3216 O3216     12.2152     0.6401    -8.7433 Any
  3217 H3217     12.2392     1.0506    -9.5976 Any
  3218 H3218     11.6080     1.1681    -8.2420 Any
  3219 O3219    -18.5405    -9.3440     0.4110 Any
  3220 H3220    -19.1791   -10.0426     0.4666 Any
  3221 H3221    -17.8894    -9.5636     1.0642 Any
  3222 O3222     -6.8667     7.3425   -12.7149 Any
  3223 H3223     -6.9546     6.3989   -12.7421 Any
  3224 H3224     -7.7171     7.6532   -12.4337 Any
  3225 O3225     12.9465     4.9380    13.4189 Any
  3226 H3226     13.8605     5.1704    13.3217 Any
  3227 H3227     12.9274     3.9959    13.3134 Any
  3228 O3228     -1.9576    11.3332   -11.6343 Any
  3229 H3229     -1.1800    11.2834   -11.0942 Any
  3230 H3230     -1.9989    12.2394   -11.9100 Any
  3231 O3231     -1.7317    -4.4951     0.1761 Any
  3232 H3232     -1.0770    -3.8186     0.0637 Any
  3233 H3233     -1.9553    -4.7596    -0.7064 Any
  3234 O3234     11.3059    11.9437     1.7767 Any
  3235 H3235     11.9473    11.4614     1.2717 Any
  3236 H3236     11.2147    11.4494     2.5806 Any
  3237 O3237      3.7879    17.5132    -3.4756 Any
  3238 H3238      2.8779    17.7475    -3.6017 Any
  3239 H3239      3.7657    16.6010    -3.2179 Any
  3240 O3240     -4.8976   -16.7553   -15.2313 Any
  3241 H3241     -4.6635   -17.4841   -15.7908 Any
  3242 H3242     -5.5110   -16.2473   -15.7457 Any
  3243 O3243      0.4730    10.3771    19.2813 Any
  3244 H3244      0.9298    10.1157    18.4928 Any
  3245 H3245      0.3418     9.5693    19.7599 Any
  3246 O3246    -13.3958   -13.0514     4.0089 Any
  3247 H3247    -12.7065   -13.5929     4.3701 Any
  3248 H3248    -14.0932   -13.0940     4.6498 Any
  3249 O3249      6.4324    -6.2661     0.0078 Any
  3250 H3250      5.5881    -6.5724    -0.2958 Any
  3251 H3251      6.2514    -5.8580     0.8442 Any
  3252 O3252    -16.8992    -0.9925   -10.4301 Any
  3253 H3253    -16.6730    -0.2129    -9.9403 Any
  3254 H3254    -17.8290    -1.1053   -10.2828 Any
  3255 O3255    -16.5360    19.7872   -14.6072 Any
  3256 H3256    -15.6004    19.6338   -14.6051 Any
  3257 H3257    -16.8356    19.4452   -13.7752 Any
  3258 O3258     -1.3285   -11.6964     1.6362 Any
  3259 H3259     -1.2545   -12.1029     2.4895 Any
  3260 H3260     -2.1088   -12.0785     1.2568 Any
  3261 O3261    -15.9070   -13.6860    -2.6147 Any
  3262 H3262    -16.2157   -13.5520    -3.5010 Any
  3263 H3263    -16.6830   -13.6019    -2.0765 Any
  3264 O3264     19.4490    -5.2621    -8.5221 Any
  3265 H3265     19.5958    -5.1346    -7.5941 Any
  3266 H3266     20.3101    -5.1892    -8.9120 Any
  3267 O3267     13.8657   -15.3364    -7.7112 Any
  3268 H3268     13.5596   -15.5709    -8.5774 Any
  3269 H3269     13.9690   -16.1651    -7.2623 Any
  3270 O3270     13.2925     6.6663    -3.6544 Any
  3271 H3271     13.2460     7.5908    -3.8593 Any
  3272 H3272     13.5296     6.6370    -2.7369 Any
  3273 O3273    -19.6132    20.1461    -5.2526 Any
  3274 H3274    -20.0787    19.5218    -5.7934 Any
  3275 H3275    -19.5408    19.7222    -4.4076 Any
  3276 O3276     15.1984     8.2959    15.2277 Any
  3277 H3277     15.1036     8.1128    16.1532 Any
  3278 H3278     15.2112     7.4421    14.8158 Any
  3279 O3279    -12.9570     0.7868    -9.5861 Any
  3280 H3280    -12.3152     1.4332    -9.3231 Any
  3281 H3281    -13.1933     0.3443    -8.7816 Any
  3282 O3282      5.3572     6.3720    18.9981 Any
  3283 H3283      5.5801     5.5756    19.4616 Any
  3284 H3284      5.7022     7.0685    19.5412 Any
  3285 O3285     18.7511   -18.6822    13.3183 Any
  3286 H3286     19.2878   -18.1958    13.9301 Any
  3287 H3287     17.9826   -18.1413    13.1929 Any
  3288 O3288      2.2911   -19.5821     3.1344 Any
  3289 H3289      2.2480   -19.5815     4.0815 Any
  3290 H3290      1.7566   -20.3198     2.8718 Any
  3291 O3291    -14.8649     5.9383    -0.2245 Any
  3292 H3292    -14.1529     6.0892     0.3831 Any
  3293 H3293    -15.6205     6.3323     0.1911 Any
  3294 O3294     18.4572    12.3366    19.0103 Any
  3295 H3295     18.4723    11.3897    18.9647 Any
  3296 H3296     17.9664    12.6043    18.2446 Any
  3297 O3297    -18.7468     5.2994    13.0413 Any
  3298 H3298    -19.6670     5.5225    13.0902 Any
  3299 H3299    -18.2995     6.0499    13.4095 Any
  3300 O3300     20.1519     6.6892    -9.4577 Any
  3301 H3301     20.2864     7.2958   -10.1738 Any
  3302 H3302     19.5429     6.0480    -9.7995 Any
  3303 O3303    -15.9617    -0.2766     4.8573 Any
  3304 H3304    -15.8388    -0.5604     5.7535 Any
  3305 H3305    -15.2069     0.2670     4.6736 Any
  3306 O3306     15.7059   -17.7684    -9.9596 Any
  3307 H3307     15.7778   -16.8303   -10.0769 Any
  3308 H3308     16.4920   -18.0107    -9.4882 Any
  3309 O3309     19.5142   -12.7122   -16.6434 Any
  3310 H3310     18.9414   -12.0443   -16.9964 Any
  3311 H3311     19.5460   -13.3792   -17.3166 Any
  3312 O3312      2.1723   -15.0154    15.4521 Any
  3313 H3313      2.8686   -15.4351    14.9645 Any
  3314 H3314      1.7051   -14.5017    14.8065 Any
  3315 O3315     13.6600    -2.6676    14.1986 Any
  3316 H3316     13.1379    -2.6992    14.9894 Any
  3317 H3317     14.1778    -3.4615    14.2229 Any
  3318 O3318      3.0418   -20.0575    -6.6698 Any
  3319 H3319      3.5858   -19.7720    -5.9476 Any
  3320 H3320      2.2503   -19.5417    -6.5906 Any
  3321 O3321    -11.7969    -7.8956    10.1997 Any
  3322 H3322    -11.5781    -7.0629     9.8026 Any
  3323 H3323    -11.9017    -8.4887     9.4675 Any
  3324 O3324     -9.0915    17.7008    10.4268 Any
  3325 H3325     -9.9219    17.2547    10.5282 Any
  3326 H3326     -8.4407    17.0433    10.6342 Any
  3327 O3327     12.7518     0.4429    -3.9704 Any
  3328 H3328     12.4515     1.3056    -4.2244 Any
  3329 H3329     12.2763    -0.1511    -4.5361 Any
  3330 O3330    -11.3460    -7.0183   -18.5377 Any
  3331 H3331    -12.0787    -7.5690   -18.7799 Any
  3332 H3332    -11.3636    -6.3081   -19.1655 Any
  3333 O3333      3.7015   -10.2398    -2.9906 Any
  3334 H3334      4.3710   -10.6475    -3.5240 Any
  3335 H3335      2.9724   -10.1083    -3.5822 Any
  3336 O3336     -1.1410    -6.5371    13.7462 Any
  3337 H3337     -0.9812    -5.8688    13.0930 Any
  3338 H3338     -1.4333    -6.0584    14.5107 Any
  3339 O3339    -15.6653     4.1635     5.0713 Any
  3340 H3340    -15.9477     4.2494     4.1704 Any
  3341 H3341    -15.9301     3.2883     5.3219 Any
  3342 O3342    -16.6295     5.7314    16.2101 Any
  3343 H3343    -16.2789     6.2506    16.9217 Any
  3344 H3344    -16.4911     6.2624    15.4369 Any
  3345 O3345    -12.6641    -4.2250    -4.1647 Any
  3346 H3346    -13.0625    -5.0173    -4.5001 Any
  3347 H3347    -12.1541    -3.8890    -4.8899 Any
  3348 O3348     -9.1759    -8.7695    18.3721 Any
  3349 H3349     -9.5814    -9.3196    19.0292 Any
  3350 H3350     -9.9016    -8.4249    17.8686 Any
  3351 O3351      9.3275    16.4210     6.3967 Any
  3352 H3352      9.6489    17.2370     6.7570 Any
  3353 H3353      9.8752    16.2628     5.6391 Any
  3354 O3354     13.5587    -3.1932   -16.8933 Any
  3355 H3355     13.0082    -2.5149   -16.5249 Any
  3356 H3356     14.2116    -2.7238   -17.3956 Any
  3357 O3357     -0.7744     6.8490    13.0948 Any
  3358 H3358     -1.3094     6.7191    12.3229 Any
  3359 H3359      0.0336     7.2196    12.7653 Any
  3360 O3360     14.6740    10.2000    18.3979 Any
  3361 H3361     15.0304    10.9340    17.9151 Any
  3362 H3362     14.0256    10.5849    18.9727 Any
  3363 O3363      6.4346    -7.6277    -6.6477 Any
  3364 H3364      5.9320    -7.0187    -7.1726 Any
  3365 H3365      7.0144    -8.0530    -7.2656 Any
  3366 O3366      0.2082    -8.2035    -8.3900 Any
  3367 H3367     -0.0462    -8.1194    -7.4805 Any
  3368 H3368     -0.4598    -8.7557    -8.7743 Any
  3369 O3369      7.7530   -10.8097    10.0563 Any
  3370 H3370      6.8359   -10.5958    10.1667 Any
  3371 H3371      8.1973    -9.9724    10.0772 Any
  3372 O3372    -11.1903   -19.1714     1.6864 Any
  3373 H3373    -10.9182   -18.4933     2.2907 Any
  3374 H3374    -10.4655   -19.7824     1.6715 Any
  3375 O3375    -19.9311     9.9705     7.8353 Any
  3376 H3376    -19.7811    10.6189     8.5105 Any
  3377 H3377    -19.8951    10.4588     7.0234 Any
  3378 O3378     -4.0383    -3.1160   -11.1935 Any
  3379 H3379     -4.8533    -2.9573   -11.6512 Any
  3380 H3380     -3.3669    -2.9883   -11.8507 Any
  3381 O3381      9.5560   -15.1226     8.1057 Any
  3382 H3382      9.4905   -14.5430     8.8532 Any
  3383 H3383      8.7228   -15.5742     8.0803 Any
  3384 O3384     -3.7306   -15.4304    17.9737 Any
  3385 H3385     -3.9920   -15.1631    17.1025 Any
  3386 H3386     -2.8968   -15.0015    18.1146 Any
  3387 O3387     -9.8431    15.8885     0.2541 Any
  3388 H3388     -9.0730    15.4736    -0.1116 Any
  3389 H3389    -10.4210    16.0140    -0.4869 Any
  3390 O3390     13.5221    -8.8871    -1.4489 Any
  3391 H3391     13.5204    -9.5747    -0.7962 Any
  3392 H3392     12.6248    -8.8439    -1.7521 Any
  3393 O3393      0.0515    11.1340    -6.8621 Any
  3394 H3394     -0.8229    11.5001    -6.8444 Any
  3395 H3395      0.6141    11.8474    -6.5912 Any
  3396 O3396     14.0028    10.7893     4.2554 Any
  3397 H3397     13.6775     9.9013     4.3222 Any
  3398 H3398     13.9370    11.1343     5.1360 Any
  3399 O3399     -2.5322   -10.4180    16.9567 Any
  3400 H3400     -3.0491   -11.2111    16.9049 Any
  3401 H3401     -1.6469   -10.7200    17.1114 Any
  3402 O3402     -6.1783    -8.8819     4.9060 Any
  3403 H3403     -5.8347    -9.3497     5.6557 Any
  3404 H3404     -6.2822    -9.5461     4.2375 Any
  3405 O3405     -6.2355     0.1187     9.3905 Any
  3406 H3406     -7.1815     0.0832     9.3384 Any
  3407 H3407     -5.9562    -0.7791     9.2685 Any
  3408 O3408     10.4981    14.3367     2.4207 Any
  3409 H3409     11.1313    15.0423     2.4094 Any
  3410 H3410     10.9520    13.6027     2.0280 Any
  3411 O3411      5.9465    19.8551     2.0513 Any
  3412 H3412      5.1525    20.3661     2.1374 Any
  3413 H3413      5.6447    18.9669     1.9142 Any
  3414 O3414      9.9475     6.3760     8.2165 Any
  3415 H3415      9.9895     5.4292     8.2433 Any
  3416 H3416      9.4990     6.6176     9.0161 Any
  3417 O3417      3.5421    -3.8258   -18.1317 Any
  3418 H3418      3.4035    -4.2326   -18.9768 Any
  3419 H3419      4.0906    -3.0747   -18.3157 Any
  3420 O3420     -6.7165    10.0914    18.1481 Any
  3421 H3421     -7.3401    10.7496    18.4252 Any
  3422 H3422     -5.9139    10.3187    18.5987 Any
  3423 O3423      7.7366    -5.7246     9.4374 Any
  3424 H3424      7.7431    -4.8240     9.7338 Any
  3425 H3425      7.4180    -5.6798     8.5456 Any
  3426 O3426      1.0438    -2.6306     0.8272 Any
  3427 H3427      1.7210    -3.0122     0.2843 Any
  3428 H3428      0.8832    -1.7783     0.4443 Any
  3429 O3429    -16.5125     1.2125    -8.8524 Any
  3430 H3430    -15.8701     1.8931    -9.0045 Any
  3431 H3431    -16.8492     1.3920    -7.9845 Any
  3432 O3432     15.1873     3.8094    -7.3525 Any
  3433 H3433     15.7070     4.3869    -6.8091 Any
  3434 H3434     14.9472     3.0939    -6.7786 Any
  3435 O3435     -4.2421   -12.4152    17.2999 Any
  3436 H3436     -5.0141   -12.0349    17.6978 Any
  3437 H3437     -4.5210   -13.2741    17.0114 Any
  3438 O3438    -11.7997   -10.8952     0.8332 Any
  3439 H3439    -11.3657   -11.5258     1.3926 Any
  3440 H3440    -11.4832   -10.0532     1.1327 Any
  3441 O3441    -11.1000   -18.8963    16.7674 Any
  3442 H3442    -10.2721   -19.3584    16.7738 Any
  3443 H3443    -11.7371   -19.5519    16.5162 Any
  3444 O3444     12.5098    -8.1695    18.2030 Any
  3445 H3445     12.4551    -7.5287    17.5064 Any
  3446 H3446     12.9646    -8.9054    17.8150 Any
  3447 O3447     -8.7483    11.9738    19.1043 Any
  3448 H3448     -8.9342    12.1729    20.0124 Any
  3449 H3449     -9.0384    12.7404    18.6278 Any
  3450 O3450     17.1378    10.2326    14.5618 Any
  3451 H3451     16.5837     9.4907    14.7656 Any
  3452 H3452     16.5343    10.9519    14.4301 Any
  3453 O3453     12.6589    -6.5250   -13.2326 Any
  3454 H3454     12.0997    -6.4840   -12.4681 Any
  3455 H3455     12.3091    -5.8675   -13.8194 Any
  3456 O3456    -16.8912    17.8174     4.0143 Any
  3457 H3457    -17.2335    18.6686     3.7751 Any
  3458 H3458    -16.0365    17.9990     4.3823 Any
  3459 O3459    -11.1912     9.0274    -8.6538 Any
  3460 H3460    -10.8034     9.8638    -8.4325 Any
  3461 H3461    -10.7677     8.4075    -8.0748 Any
  3462 O3462      5.4542     4.3970    -9.4473 Any
  3463 H3463      4.7411     4.1766    -8.8627 Any
  3464 H3464      5.7754     3.5606    -9.7575 Any
  3465 O3465    -17.6311    17.0153    -2.9746 Any
  3466 H3466    -17.0144    16.6308    -3.5835 Any
  3467 H3467    -17.6040    16.4465    -2.2166 Any
  3468 O3468      2.3782     0.7293   -14.2037 Any
  3469 H3469      2.8172    -0.0521   -13.8947 Any
  3470 H3470      1.6031     0.7974   -13.6620 Any
  3471 O3471     -9.7241    12.7029   -13.4736 Any
  3472 H3472     -9.2542    12.4517   -14.2578 Any
  3473 H3473    -10.3709    13.3280   -13.7731 Any
  3474 O3474     18.9161    -9.4560    13.2298 Any
  3475 H3475     19.2517    -8.9106    13.9290 Any
  3476 H3476     19.0317    -8.9361    12.4454 Any
  3477 O3477     -1.4928     8.0311    -2.2863 Any
  3478 H3478     -1.4037     8.9682    -2.3990 Any
  3479 H3479     -0.7041     7.6690    -2.6680 Any
  3480 O3480     -0.0599     4.5532    -1.5681 Any
  3481 H3481      0.2154     4.0976    -2.3526 Any
  3482 H3482      0.6843     5.0908    -1.3310 Any
  3483 O3483    -14.5226     3.5042   -19.5870 Any
  3484 H3484    -15.4365     3.7180   -19.7212 Any
  3485 H3485    -14.2978     2.9473   -20.3206 Any
  3486 O3486      6.7171    -1.2719     6.4537 Any
  3487 H3487      5.8782    -0.8304     6.4375 Any
  3488 H3488      7.3121    -0.6690     6.0278 Any
  3489 O3489     11.7503   -12.2389   -14.8916 Any
  3490 H3490     11.6506   -11.4493   -15.4069 Any
  3491 H3491     12.1989   -12.8442   -15.4672 Any
  3492 O3492     -6.6148    -8.4428    17.4262 Any
  3493 H3493     -7.5123    -8.4753    17.7302 Any
  3494 H3494     -6.6850    -8.3372    16.4866 Any
  3495 O3495    -11.9773    -3.5708    12.2432 Any
  3496 H3496    -12.8246    -3.8387    12.5738 Any
  3497 H3497    -12.1341    -2.7264    11.8416 Any
  3498 O3498     14.1068    -0.2958     0.8374 Any
  3499 H3499     13.4644     0.3395     1.1250 Any
  3500 H3500     14.0518    -0.2789    -0.1090 Any
  3501 O3501     -8.2821    12.2408     0.4547 Any
  3502 H3502     -7.9995    11.5034     0.9794 Any
  3503 H3503     -7.6081    12.3361    -0.2052 Any
  3504 O3504      8.8187     6.9353    10.4830 Any
  3505 H3505      8.8303     6.1976    11.0786 Any
  3506 H3506      8.9028     7.6955    11.0433 Any
  3507 O3507      0.6540    17.2748     1.0110 Any
  3508 H3508      1.4331    17.3279     0.4732 Any
  3509 H3509     -0.0646    17.3645     0.3991 Any
  3510 O3510     -6.2395    13.3713   -12.4264 Any
  3511 H3511     -5.8589    14.0500   -12.9681 Any
  3512 H3512     -5.9661    12.5599   -12.8335 Any
  3513 O3513     -7.0216     7.1395    10.9750 Any
  3514 H3514     -7.8271     7.6390    10.9992 Any
  3515 H3515     -6.5657     7.3835    11.7697 Any
  3516 O3516      9.8003     4.6423   -10.2730 Any
  3517 H3517     10.0779     4.2886    -9.4383 Any
  3518 H3518     10.4048     5.3524   -10.4440 Any
  3519 O3519    -12.4733    -0.7870   -14.8701 Any
  3520 H3520    -12.1097    -0.5314   -14.0326 Any
  3521 H3521    -12.6901    -1.7041   -14.7660 Any
  3522 O3522      9.6360   -15.8293    18.3631 Any
  3523 H3523      9.9907   -15.2476    19.0224 Any
  3524 H3524      9.5505   -16.6647    18.8033 Any
  3525 O3525     -8.7018    17.3143   -12.4031 Any
  3526 H3526     -8.3914    16.7936   -13.1321 Any
  3527 H3527     -9.2013    16.7077   -11.8725 Any
  3528 O3528    -17.2665    -6.0953   -18.9519 Any
  3529 H3529    -17.2615    -6.5163   -18.1024 Any
  3530 H3530    -16.3684    -5.8243   -19.0890 Any
  3531 O3531     11.3517   -15.3811    15.9859 Any
  3532 H3532     11.2779   -15.1416    16.9003 Any
  3533 H3533     11.2926   -14.5585    15.5183 Any
  3534 O3534    -16.2742     8.0527   -19.1917 Any
  3535 H3535    -17.1745     8.1247   -18.9032 Any
  3536 H3536    -15.7631     8.3753   -18.4612 Any
  3537 O3537     -1.1872    18.6117    -0.6392 Any
  3538 H3538     -1.1217    19.3614    -0.0625 Any
  3539 H3539     -0.5334    18.7675    -1.3080 Any
  3540 O3540     -8.3983     9.9475    -9.8039 Any
  3541 H3541     -8.2735    10.6947   -10.3740 Any
  3542 H3542     -8.6908    10.3202    -8.9827 Any
  3543 O3543    -11.0284   -16.6103    -3.7458 Any
  3544 H3544    -11.4469   -17.2804    -3.2217 Any
  3545 H3545    -11.3862   -16.7299    -4.6156 Any
  3546 O3546     15.0130     6.8522    12.6123 Any
  3547 H3547     15.2563     6.0897    13.1205 Any
  3548 H3548     15.3993     6.7035    11.7593 Any
  3549 O3549     -5.2440   -13.1329   -10.1292 Any
  3550 H3550     -5.7435   -13.9268    -9.9910 Any
  3551 H3551     -5.8747   -12.5098   -10.4652 Any
  3552 O3552    -10.1327    -2.1682     9.6389 Any
  3553 H3553    -10.7068    -1.5878    10.1210 Any
  3554 H3554     -9.6422    -1.5954     9.0642 Any
  3555 O3555     13.3530    -3.5785    -1.8175 Any
  3556 H3556     14.1146    -4.0474    -2.1323 Any
  3557 H3557     13.5705    -2.6634    -1.9363 Any
  3558 O3558     19.5481    -7.3477    15.1623 Any
  3559 H3559     20.2878    -6.7678    15.2863 Any
  3560 H3560     18.8390    -6.7766    14.8978 Any
  3561 O3561    -13.6278    -8.3919   -12.1484 Any
  3562 H3562    -13.4104    -7.8262   -12.8775 Any
  3563 H3563    -13.8061    -7.7984   -11.4309 Any
  3564 O3564    -13.8612     5.2803     9.3078 Any
  3565 H3565    -13.2985     4.6173     8.9302 Any
  3566 H3566    -14.7334     4.9126     9.2525 Any
  3567 O3567     14.3791     5.3502     4.4228 Any
  3568 H3568     15.0356     4.9866     3.8434 Any
  3569 H3569     13.7047     5.6784     3.8428 Any
  3570 O3570     -6.9405     0.9292     3.1951 Any
  3571 H3571     -7.1562     0.5148     4.0201 Any
  3572 H3572     -7.7719     1.2346     2.8570 Any
  3573 O3573     -0.0650     1.7383   -13.3116 Any
  3574 H3574     -0.4401     2.5989   -13.1789 Any
  3575 H3575      0.1421     1.4313   -12.4388 Any
  3576 O3576    -18.6967     8.7495   -18.2791 Any
  3577 H3577    -18.7162     9.0705   -17.3872 Any
  3578 H3578    -19.2442     7.9755   -18.2660 Any
  3579 O3579     16.7971    10.9838    -9.8086 Any
  3580 H3580     16.4989    10.0859    -9.8704 Any
  3581 H3581     17.4348    10.9756    -9.1071 Any
  3582 O3582      1.6258     1.5255    18.6398 Any
  3583 H3583      1.0357     2.2390    18.8437 Any
  3584 H3584      2.1742     1.4425    19.4087 Any
  3585 O3585     19.5395   -15.4021    18.6631 Any
  3586 H3586     18.6356   -15.5309    18.4078 Any
  3587 H3587     20.0405   -15.6360    17.8929 Any
  3588 O3588      1.6134     0.9268    -1.2747 Any
  3589 H3589      1.1556     0.8982    -0.4449 Any
  3590 H3590      2.0311     1.7778    -1.2874 Any
  3591 O3591     -4.4651    -1.6742    16.9891 Any
  3592 H3592     -5.3597    -1.9393    17.1572 Any
  3593 H3593     -4.3492    -0.8863    17.5035 Any
  3594 O3594     16.7002     1.5853    17.9025 Any
  3595 H3595     17.0599     2.4267    17.6546 Any
  3596 H3596     16.0351     1.4088    17.2503 Any
  3597 O3597      8.1320   -18.0704     0.0054 Any
  3598 H3598      8.5015   -18.1925     0.8699 Any
  3599 H3599      8.2073   -18.9201    -0.4084 Any
  3600 O3600     -3.0793    16.9669   -11.3401 Any
  3601 H3601     -3.9774    17.1784   -11.5583 Any
  3602 H3602     -2.7837    17.6973   -10.8128 Any
  3603 O3603    -15.4444     1.6815   -12.1516 Any
  3604 H3604    -14.7630     1.0334   -12.0312 Any
  3605 H3605    -15.3509     2.2663   -11.4113 Any
  3606 O3606    -18.8159   -12.4328     2.3949 Any
  3607 H3607    -19.2262   -13.0326     1.7860 Any
  3608 H3608    -18.5449   -12.9785     3.1212 Any
  3609 O3609     -7.3256    -2.3920    11.8815 Any
  3610 H3610     -6.9478    -1.9254    12.6153 Any
  3611 H3611     -7.8537    -1.7444    11.4336 Any
  3612 O3612     -5.8651    11.2960    14.1756 Any
  3613 H3613     -5.7765    12.0774    14.7051 Any
  3614 H3614     -5.1401    11.3375    13.5660 Any
  3615 O3615      3.0035    -9.8386    -0.3287 Any
  3616 H3616      2.1185    -9.5328    -0.1799 Any
  3617 H3617      3.0992    -9.8420    -1.2720 Any
  3618 O3618      9.6448    16.2608   -15.6829 Any
  3619 H3619      8.7904    15.8569   -15.7587 Any
  3620 H3620      9.6327    16.9653   -16.3172 Any
  3621 O3621      1.3183    19.3830     8.1651 Any
  3622 H3622      0.6197    20.0077     8.3088 Any
  3623 H3623      1.5193    19.0472     9.0286 Any
  3624 O3624      2.7133   -17.2210    -9.7613 Any
  3625 H3625      2.6756   -16.9503   -10.6691 Any
  3626 H3626      3.3831   -17.8917    -9.7399 Any
  3627 O3627      3.7467     0.2435   -16.4815 Any
  3628 H3628      4.5418     0.3904   -15.9865 Any
  3629 H3629      3.0508     0.5337   -15.9066 Any
  3630 O3630      3.6239    16.2202   -18.8086 Any
  3631 H3631      3.0186    16.7744   -18.3339 Any
  3632 H3632      3.6157    16.5610   -19.6933 Any
  3633 O3633     -7.7631    19.4310   -16.3507 Any
  3634 H3634     -8.3796    20.1511   -16.3639 Any
  3635 H3635     -7.4893    19.3679   -15.4452 Any
  3636 O3636      7.4397    12.7823   -17.0313 Any
  3637 H3637      8.2769    12.5024   -17.3772 Any
  3638 H3638      7.2014    12.1081   -16.4088 Any
  3639 O3639     12.0073    -5.5203    13.4663 Any
  3640 H3640     11.0940    -5.3711    13.2601 Any
  3641 H3641     12.4758    -4.8724    12.9568 Any
  3642 O3642     -0.4301   -14.7724    -8.3257 Any
  3643 H3643      0.4897   -14.6950    -8.1093 Any
  3644 H3644     -0.4593   -14.7043    -9.2709 Any
  3645 O3645      1.9592    -8.6859   -14.1021 Any
  3646 H3646      1.1817    -8.4785   -14.6034 Any
  3647 H3647      2.6697    -8.2894   -14.5888 Any
  3648 O3648      1.3618   -19.4436   -15.0367 Any
  3649 H3649      2.0584   -19.5497   -15.6710 Any
  3650 H3650      1.7714   -19.0023   -14.3043 Any
  3651 O3651    -15.3301     2.5547    -5.9543 Any
  3652 H3652    -14.5394     2.5485    -5.4311 Any
  3653 H3653    -15.0389     2.7963    -6.8236 Any
  3654 O3654     -2.7410   -11.8463    -3.2582 Any
  3655 H3655     -3.5466   -12.2892    -3.4901 Any
  3656 H3656     -2.2471   -11.8108    -4.0667 Any
  3657 O3657      2.6296     8.4341   -14.6909 Any
  3658 H3658      2.1100     7.8341   -15.2096 Any
  3659 H3659      2.0011     9.0502   -14.3382 Any
  3660 O3660      0.6930   -15.2232   -19.9403 Any
  3661 H3661      1.1717   -14.4134   -19.8224 Any
  3662 H3662      1.3457   -15.8459   -20.2320 Any
  3663 O3663     -2.0922   -18.0214    11.5161 Any
  3664 H3664     -2.7496   -17.8791    10.8479 Any
  3665 H3665     -2.5071   -17.7433    12.3219 Any
  3666 O3666    -10.9104    -7.7444    -8.6598 Any
  3667 H3667    -11.6057    -8.1532    -9.1582 Any
  3668 H3668    -10.2371    -7.5558    -9.3001 Any
  3669 O3669      1.6798   -11.2165    16.6799 Any
  3670 H3670      2.2165   -11.7181    16.0805 Any
  3671 H3671      0.8919   -11.7334    16.7842 Any
  3672 O3672      5.3316    -2.6754   -14.4958 Any
  3673 H3673      4.5389    -3.0021   -14.9006 Any
  3674 H3674      5.3303    -3.0561   -13.6274 Any
  3675 O3675      5.1716    -6.0689   -14.4538 Any
  3676 H3676      4.5348    -5.4024   -14.6757 Any
  3677 H3677      6.0098    -5.6748   -14.6564 Any
  3678 O3678      3.4663   -18.8104    -0.2876 Any
  3679 H3679      3.6023   -18.3612     0.5362 Any
  3680 H3680      4.2037   -18.5521    -0.8246 Any
  3681 O3681     16.9949     1.8734    -1.8663 Any
  3682 H3682     16.7109     0.9773    -1.7427 Any
  3683 H3683     17.3705     2.1217    -1.0320 Any
  3684 O3684    -12.0901   -20.0995   -16.1961 Any
  3685 H3685    -11.5973   -19.8258   -15.4338 Any
  3686 H3686    -12.3005   -19.2922   -16.6466 Any
  3687 O3687      2.4283    12.3501     4.4383 Any
  3688 H3688      1.7333    11.9491     3.9333 Any
  3689 H3689      3.1829    11.7963     4.2875 Any
  3690 O3690      2.6766     4.6612    19.4639 Any
  3691 H3691      1.9155     4.8888    18.9465 Any
  3692 H3692      3.4108     4.7918    18.8783 Any
  3693 O3693     16.8136   -10.0118    -1.4989 Any
  3694 H3694     17.0038   -10.7123    -2.1089 Any
  3695 H3695     16.2124    -9.4462    -1.9653 Any
  3696 O3696    -10.5968    -0.8974   -19.4859 Any
  3697 H3697    -10.1624    -1.5606   -18.9659 Any
  3698 H3698    -10.8163    -0.2143   -18.8662 Any
  3699 O3699      6.3866   -12.9703     1.8127 Any
  3700 H3700      6.3136   -12.3443     1.1044 Any
  3701 H3701      6.9887   -13.6273     1.4892 Any
  3702 O3702     14.8576    -5.1350     0.8426 Any
  3703 H3703     14.8653    -4.2079     0.6441 Any
  3704 H3704     15.7279    -5.4348     0.6156 Any
  3705 O3705    -11.9787    17.7301     6.5092 Any
  3706 H3706    -11.9959    17.1404     7.2514 Any
  3707 H3707    -11.6094    18.5334     6.8514 Any
  3708 O3708    -10.6193     2.5802    12.4701 Any
  3709 H3709     -9.8316     3.0863    12.3207 Any
  3710 H3710    -10.3986     2.0020    13.1884 Any
  3711 O3711     -5.7402   -11.9172     5.5157 Any
  3712 H3712     -6.6415   -11.7645     5.7672 Any
  3713 H3713     -5.7981   -12.4351     4.7237 Any
  3714 O3714     -0.5901    -1.0063    19.3882 Any
  3715 H3715     -0.5168    -1.8930    19.7157 Any
  3716 H3716     -0.4751    -1.0881    18.4507 Any
  3717 O3717      8.6457    -4.6071     3.0120 Any
  3718 H3718      8.9739    -4.4595     2.1348 Any
  3719 H3719      7.8681    -4.0677     3.0696 Any
  3720 O3720     -9.6881    11.2949    -7.6266 Any
  3721 H3721     -9.2848    11.6924    -6.8661 Any
  3722 H3722    -10.3535    11.9147    -7.8949 Any
  3723 O3723      1.5632    17.2298    -5.1177 Any
  3724 H3724      2.3273    16.8004    -5.4791 Any
  3725 H3725      0.8346    16.8720    -5.6076 Any
  3726 O3726     -0.0132     7.9354   -10.7696 Any
  3727 H3727     -0.3081     7.4200   -10.0305 Any
  3728 H3728      0.6664     7.4099   -11.1707 Any
  3729 O3729      3.1992    18.3789    -9.3100 Any
  3730 H3730      2.7681    18.8888    -8.6370 Any
  3731 H3731      2.9963    18.8308   -10.1184 Any
  3732 O3732     12.3859    -6.3559     0.3824 Any
  3733 H3733     12.1471    -6.1526    -0.5123 Any
  3734 H3734     13.2253    -5.9330     0.5071 Any
  3735 O3735     13.3428   -18.8396    13.3026 Any
  3736 H3736     12.6602   -19.2932    13.7793 Any
  3737 H3737     12.8950   -18.4362    12.5708 Any
  3738 O3738     11.8296   -10.3787    10.3683 Any
  3739 H3739     11.6213   -11.1409    10.8924 Any
  3740 H3740     12.7743   -10.3109    10.4109 Any
  3741 O3741      7.2007   -12.2572    12.5753 Any
  3742 H3742      7.0743   -13.1734    12.3666 Any
  3743 H3743      7.5984   -11.8881    11.7978 Any
  3744 O3744     -3.7395    -6.4280    19.6306 Any
  3745 H3745     -3.9092    -7.3251    19.3751 Any
  3746 H3746     -3.1184    -6.4966    20.3436 Any
  3747 O3747      4.8470   -10.9549    13.0095 Any
  3748 H3748      4.6853   -10.6318    12.1329 Any
  3749 H3749      5.7336   -11.2896    12.9806 Any
  3750 O3750     -5.8382   -19.6918   -19.3599 Any
  3751 H3751     -6.2970   -18.8913   -19.1420 Any
  3752 H3752     -6.1610   -20.3290   -18.7364 Any
  3753 O3753     -8.0639    13.4903    -6.4668 Any
  3754 H3754     -8.8082    13.6116    -5.8922 Any
  3755 H3755     -8.0902    14.2360    -7.0518 Any
  3756 O3756     -0.0303    -0.6657     5.3280 Any
  3757 H3757     -0.7436    -1.2875     5.3857 Any
  3758 H3758      0.5145    -0.8573     6.0798 Any
  3759 O3759     -6.0761    -9.3471    -7.9803 Any
  3760 H3760     -6.9331    -8.9415    -7.9798 Any
  3761 H3761     -5.8035    -9.3297    -7.0724 Any
  3762 O3762     17.7168    18.3282    -2.7431 Any
  3763 H3763     17.3994    19.2215    -2.7570 Any
  3764 H3764     18.6149    18.3896    -3.0406 Any
  3765 O3765     14.8714     7.3589   -17.3594 Any
  3766 H3766     15.5590     7.8385   -17.8024 Any
  3767 H3767     14.4333     6.8783   -18.0492 Any
  3768 O3768    -18.9494    10.1429    18.5426 Any
  3769 H3769    -18.0215    10.3135    18.6366 Any
  3770 H3770    -19.1334    10.3214    17.6299 Any
  3771 O3771     10.1767     7.9638    -6.5294 Any
  3772 H3772     11.0989     8.1089    -6.6946 Any
  3773 H3773     10.0475     7.0391    -6.6943 Any
  3774 O3774     10.8522    -8.3492    -1.9734 Any
  3775 H3775     10.8807    -7.4047    -1.8962 Any
  3776 H3776     10.4225    -8.6405    -1.1801 Any
  3777 O3777      2.2248     7.0389   -12.3616 Any
  3778 H3778      2.3181     7.6767   -13.0569 Any
  3779 H3779      3.1130     6.7795   -12.1552 Any
  3780 O3780      7.4133   -19.1999     6.8709 Any
  3781 H3781      7.1377   -20.1070     6.8713 Any
  3782 H3782      7.7592   -19.0553     7.7417 Any
  3783 O3783     -1.2828    -6.0845     3.3923 Any
  3784 H3784     -1.1180    -5.1990     3.0963 Any
  3785 H3785     -0.5650    -6.2766     3.9812 Any
  3786 O3786     15.8818   -19.1886    -3.1182 Any
  3787 H3787     14.9747   -19.3661    -2.9073 Any
  3788 H3788     16.0064   -18.2774    -2.8877 Any
  3789 O3789     -9.7204    15.8892     5.1594 Any
  3790 H3790    -10.0415    16.2512     5.9747 Any
  3791 H3791     -9.9919    16.5125     4.4985 Any
  3792 O3792      6.6279    -6.7970   -17.1136 Any
  3793 H3793      6.8853    -7.6911   -17.2959 Any
  3794 H3794      7.4212    -6.3785   -16.8062 Any
  3795 O3795     -7.7662    14.8256    -1.2280 Any
  3796 H3796     -7.1139    14.4307    -0.6645 Any
  3797 H3797     -7.3286    14.9302    -2.0625 Any
  3798 O3798     -8.8464   -15.1972    -7.4758 Any
  3799 H3799     -8.4849   -14.3306    -7.3448 Any
  3800 H3800     -8.1710   -15.7865    -7.1670 Any
  3801 O3801     12.1989     2.9816   -11.2647 Any
  3802 H3802     12.5851     3.4417   -10.5312 Any
  3803 H3803     11.8297     3.6656   -11.8076 Any
  3804 O3804     15.8436   -16.7645    -4.9115 Any
  3805 H3805     15.7081   -17.6984    -4.8209 Any
  3806 H3806     15.0055   -16.3795    -4.6916 Any
  3807 O3807      0.1672   -15.2011    -4.6616 Any
  3808 H3808      0.3523   -15.0465    -5.5785 Any
  3809 H3809      0.4242   -14.3982    -4.2277 Any
  3810 O3810     16.6527   -14.3042    18.3200 Any
  3811 H3811     16.9159   -13.9959    17.4629 Any
  3812 H3812     15.7076   -14.3629    18.2724 Any
  3813 O3813     14.2092    -2.5115     2.4518 Any
  3814 H3814     14.2073    -1.7158     1.9363 Any
  3815 H3815     13.3286    -2.5735     2.7978 Any
  3816 O3816      2.0670    15.0688    14.3388 Any
  3817 H3817      1.2366    14.6242    14.2307 Any
  3818 H3818      2.4986    14.6006    15.0412 Any
  3819 O3819      1.8241   -12.6941   -19.6208 Any
  3820 H3820      2.2476   -11.8935   -19.9015 Any
  3821 H3821      2.2861   -12.9441   -18.8315 Any
  3822 O3822      9.4177     3.3890   -18.7501 Any
  3823 H3823     10.3577     3.3452   -18.6350 Any
  3824 H3824      9.2731     4.1955   -19.2271 Any
  3825 O3825    -10.7040    15.5482   -11.1322 Any
  3826 H3826    -11.5669    15.6037   -11.5211 Any
  3827 H3827    -10.6928    14.7066   -10.6958 Any
  3828 O3828     14.7881     2.6616    15.8945 Any
  3829 H3829     14.1692     2.2730    16.4985 Any
  3830 H3830     14.4759     2.4068    15.0363 Any
  3831 O3831      8.2091    -1.2825    -1.4735 Any
  3832 H3832      9.1096    -1.4022    -1.7447 Any
  3833 H3833      8.1138    -1.8378    -0.7110 Any
  3834 O3834     18.7127     8.0471     3.8188 Any
  3835 H3835     18.1948     8.5280     4.4508 Any
  3836 H3836     19.4789     7.7671     4.3021 Any
  3837 O3837     -1.7217    18.8365    -9.8467 Any
  3838 H3838     -1.4011    19.7054    -9.6435 Any
  3839 H3839     -1.2767    18.2683    -9.2319 Any
  3840 O3840      8.2095    -3.8487   -11.6512 Any
  3841 H3841      8.1215    -3.3430   -10.8542 Any
  3842 H3842      8.9220    -3.4338   -12.1195 Any
  3843 O3843      9.9628    17.9760    -7.4102 Any
  3844 H3844      9.9582    17.0288    -7.3689 Any
  3845 H3845     10.0497    18.2536    -6.5078 Any
  3846 O3846      8.2179     2.4703    11.6033 Any
  3847 H3847      7.2911     2.4968    11.8015 Any
  3848 H3848      8.5337     3.3369    11.8228 Any
  3849 O3849      4.4687   -17.7853    16.7973 Any
  3850 H3850      4.8389   -18.4814    17.3238 Any
  3851 H3851      5.2196   -17.3472    16.4191 Any
  3852 O3852      7.4891   -16.5405    -8.7941 Any
  3853 H3853      8.3912   -16.5752    -8.5045 Any
  3854 H3854      6.9802   -16.5869    -7.9955 Any
  3855 O3855     -4.4521   -10.7167    12.7108 Any
  3856 H3856     -4.4080   -11.5709    13.1199 Any
  3857 H3857     -3.5623   -10.5373    12.4370 Any
  3858 O3858    -18.8188    13.9353     4.4513 Any
  3859 H3859    -18.0092    13.7363     3.9999 Any
  3860 H3860    -18.7945    14.8741     4.5819 Any
  3861 O3861    -16.9704     4.0093    19.5489 Any
  3862 H3862    -17.3533     4.0448    18.6823 Any
  3863 H3863    -17.6425     3.6174    20.0908 Any
  3864 O3864     16.2717    -5.8553     4.7804 Any
  3865 H3865     16.5213    -5.1812     5.3986 Any
  3866 H3866     15.4150    -5.5909     4.4722 Any
  3867 O3867    -17.1550   -12.7101   -13.6739 Any
  3868 H3868    -16.7221   -12.0891   -13.1030 Any
  3869 H3869    -16.4520   -13.1077   -14.1705 Any
  3870 O3870    -19.2516    -4.4408   -19.9403 Any
  3871 H3871    -19.8487    -4.4365   -19.2038 Any
  3872 H3872    -18.6123    -5.1070   -19.7251 Any
  3873 O3873     -6.0861     6.6427    17.1750 Any
  3874 H3874     -6.9167     6.3141    17.4928 Any
  3875 H3875     -6.2953     7.4800    16.7825 Any
  3876 O3876      0.7619   -17.5360    -3.5387 Any
  3877 H3877      0.4599   -18.2754    -4.0495 Any
  3878 H3878      0.5320   -16.7772    -4.0586 Any
  3879 O3879      7.4581    -7.0295    16.6459 Any
  3880 H3880      7.4912    -7.3739    17.5287 Any
  3881 H3881      7.8886    -6.1867    16.7025 Any
  3882 O3882      8.8199    -7.1678    12.5536 Any
  3883 H3883      8.3982    -7.4729    13.3460 Any
  3884 H3884      8.7872    -7.9103    11.9650 Any
  3885 O3885      9.8358     0.6720   -19.9113 Any
  3886 H3886      9.0303     0.2280   -19.6812 Any
  3887 H3887      9.8165     1.4763   -19.4098 Any
  3888 O3888     -2.9522    -6.8779    -2.6809 Any
  3889 H3889     -3.1729    -6.0336    -2.3104 Any
  3890 H3890     -2.5259    -7.3444    -1.9741 Any
  3891 O3891      5.3165    10.6075   -18.2107 Any
  3892 H3892      5.5133    11.4201   -18.6578 Any
  3893 H3893      4.9218    10.8756   -17.3915 Any
  3894 O3894    -15.9007    15.4656    -4.5224 Any
  3895 H3895    -15.4556    14.6285    -4.5229 Any
  3896 H3896    -15.7216    15.8314    -5.3785 Any
  3897 O3897     -8.9526    -6.2333   -17.2269 Any
  3898 H3898     -9.7758    -6.6435   -17.4568 Any
  3899 H3899     -8.3149    -6.6423   -17.7968 Any
  3900 O3900      3.3112     2.1829    16.6157 Any
  3901 H3901      2.5085     2.5027    16.2255 Any
  3902 H3902      3.0335     1.4856    17.1949 Any
  3903 O3903      3.5810     2.5955     5.0117 Any
  3904 H3904      2.6644     2.8009     5.1403 Any
  3905 H3905      3.6287     2.2629     4.1251 Any
  3906 O3906     -9.7033    19.6949    -1.4053 Any
  3907 H3907     -9.7979    20.2729    -2.1509 Any
  3908 H3908    -10.4769    19.1473    -1.4284 Any
  3909 O3909     -1.3496    15.8679    -3.3713 Any
  3910 H3910     -1.3610    16.3416    -4.1925 Any
  3911 H3911     -1.6902    15.0096    -3.5864 Any
  3912 O3912    -13.4336    -6.7274   -14.1196 Any
  3913 H3913    -14.2492    -6.4686   -14.5279 Any
  3914 H3914    -13.2118    -7.5520   -14.5315 Any
  3915 O3915     -3.4942     4.3288   -11.1993 Any
  3916 H3916     -3.1847     4.9256   -11.8678 Any
  3917 H3917     -4.0584     4.8574   -10.6505 Any
  3918 O3918    -13.3183    11.5612   -18.3085 Any
  3919 H3919    -13.4264    11.2593   -19.2008 Any
  3920 H3920    -13.5328    12.4841   -18.3414 Any
  3921 O3921      1.4369    -4.7817    13.4666 Any
  3922 H3922      1.1578    -3.9989    13.9230 Any
  3923 H3923      1.2273    -4.6149    12.5571 Any
  3924 O3924      6.7305    17.8976    -2.9483 Any
  3925 H3925      5.8254    17.6908    -3.1406 Any
  3926 H3926      7.1399    17.9900    -3.7985 Any
  3927 O3927     14.4603   -10.3418    10.2575 Any
  3928 H3928     14.9729   -10.1563    11.0332 Any
  3929 H3929     14.6198   -11.2594    10.0801 Any
  3930 O3930     13.2630   -16.9918     1.1575 Any
  3931 H3931     12.6657   -16.5492     1.7459 Any
  3932 H3932     14.0486   -17.1252     1.6711 Any
  3933 O3933     10.2242   -11.2800     8.2416 Any
  3934 H3934     10.1401   -10.4873     7.7283 Any
  3935 H3935     10.8321   -11.0530     8.9329 Any
  3936 O3936    -17.4123   -10.7061    -5.3342 Any
  3937 H3937    -17.5217    -9.7681    -5.2503 Any
  3938 H3938    -16.4770   -10.8296    -5.4290 Any
  3939 O3939     18.6011    -3.3008   -12.8131 Any
  3940 H3940     19.0674    -3.9353   -12.2851 Any
  3941 H3941     18.8319    -3.5182   -13.7066 Any
  3942 O3942    -20.0458    -3.8793     6.2656 Any
  3943 H3943    -19.6951    -4.6454     5.8309 Any
  3944 H3944    -19.5452    -3.1552     5.9135 Any
  3945 O3945     13.1837   -19.7466    -2.7503 Any
  3946 H3946     13.1626   -19.6966    -1.8037 Any
  3947 H3947     12.6683   -20.5142    -2.9601 Any
  3948 O3948     -7.4270     5.9438     7.4904 Any
  3949 H3949     -7.0843     6.8130     7.6513 Any
  3950 H3950     -6.7869     5.3600     7.8757 Any
  3951 O3951      4.0432    -9.1727    -8.2453 Any
  3952 H3952      3.8912    -8.2600    -8.0387 Any
  3953 H3953      4.9431    -9.2034    -8.5423 Any
  3954 O3954     -5.7292    -8.9823     1.5233 Any
  3955 H3955     -4.8382    -8.7169     1.7095 Any
  3956 H3956     -5.6485    -9.6087     0.8161 Any
  3957 O3957     -2.8584    -1.4546     2.0429 Any
  3958 H3958     -3.3922    -1.5609     1.2666 Any
  3959 H3959     -3.2743    -0.7514     2.5239 Any
  3960 O3960      9.4084    -9.6059    17.0985 Any
  3961 H3961      8.4959    -9.8616    17.1278 Any
  3962 H3962      9.5412    -9.1044    17.8921 Any
  3963 O3963      1.2652    -4.8100   -12.8119 Any
  3964 H3964      0.9839    -4.9243   -13.7101 Any
  3965 H3965      1.2493    -3.8721   -12.6745 Any
  3966 O3966      6.9587    18.8930    -5.4309 Any
  3967 H3967      6.8565    18.5369    -6.3036 Any
  3968 H3968      7.5020    19.6610    -5.5488 Any
  3969 O3969     -4.6147    -7.2869    -6.3011 Any
  3970 H3970     -5.4676    -7.0419    -5.9672 Any
  3971 H3971     -4.6469    -7.0660    -7.2225 Any
  3972 O3972      4.2925    14.6697   -13.8704 Any
  3973 H3973      3.9854    14.6092   -12.9755 Any
  3974 H3974      4.6644    13.8170   -14.0532 Any
  3975 O3975    -12.1531   -10.4369   -13.1471 Any
  3976 H3976    -12.5492   -11.1737   -12.7008 Any
  3977 H3977    -12.5216    -9.6741   -12.7215 Any
  3978 O3978    -10.9778    -3.5808    -6.4765 Any
  3979 H3979    -10.3495    -3.0272    -6.0319 Any
  3980 H3980    -10.4695    -4.3205    -6.7824 Any
  3981 O3981     -4.1028     7.3973   -13.4044 Any
  3982 H3982     -5.0257     7.2640   -13.2330 Any
  3983 H3983     -3.7320     7.6134   -12.5589 Any
  3984 O3984     -5.6776    15.0142     1.1235 Any
  3985 H3985     -6.1172    14.7097     1.9064 Any
  3986 H3986     -5.0380    15.6398     1.4371 Any
  3987 O3987     13.8388    -2.9970    -9.7898 Any
  3988 H3988     13.1847    -3.6555    -9.9831 Any
  3989 H3989     14.5391    -3.1684   -10.4055 Any
  3990 O3990      6.4201   -16.1959    -3.9030 Any
  3991 H3991      5.6182   -16.2429    -3.3994 Any
  3992 H3992      6.8601   -17.0173    -3.7281 Any
  3993 O3993    -11.4313    15.3577   -17.5187 Any
  3994 H3994    -12.1008    14.6919   -17.4332 Any
  3995 H3995    -11.8670    16.0796   -17.9523 Any
  3996 O3996    -14.4532   -19.1800   -10.0896 Any
  3997 H3997    -14.2246   -18.5618    -9.4082 Any
  3998 H3998    -14.7383   -18.6405   -10.8153 Any
  3999 O3999      4.2309   -17.1488   -17.4144 Any
  4000 H4000      4.8587   -17.3999   -18.0790 Any
  4001 H4001      4.4031   -16.2295   -17.2587 Any
  4002 O4002    -12.4031    15.6270     3.5079 Any
  4003 H4003    -11.9059    16.4340     3.5279 Any
  4004 H4004    -11.8014    14.9848     3.1551 Any
  4005 O4005     -2.8903    17.9613    14.1015 Any
  4006 H4006     -2.1019    17.4461    14.2103 Any
  4007 H4007     -3.0521    18.3336    14.9583 Any
  4008 O4008    -14.0937    -6.6900    -4.3193 Any
  4009 H4009    -14.8889    -6.8092    -3.8171 Any
  4010 H4010    -14.3284    -6.9450    -5.2018 Any
  4011 O4011    -19.5637   -11.7119   -14.1869 Any
  4012 H4012    -19.7711   -12.0372   -15.0530 Any
  4013 H4013    -18.6935   -12.0438   -14.0096 Any
  4014 O4014    -12.9721     6.1577     1.6531 Any
  4015 H4015    -12.5448     6.8833     1.2174 Any
  4016 H4016    -12.2805     5.7336     2.1439 Any
  4017 O4017     -2.8215     8.6554    17.0361 Any
  4018 H4018     -3.2934     7.8396    16.9326 Any
  4019 H4019     -3.4949     9.3228    17.0301 Any
  4020 O4020     10.3673    18.7285     6.8151 Any
  4021 H4021     10.1134    19.6295     6.9653 Any
  4022 H4022     11.2913    18.7725     6.6074 Any
  4023 O4023    -15.0342    15.1877     3.4537 Any
  4024 H4024    -14.0938    15.3065     3.4756 Any
  4025 H4025    -15.3856    16.0681     3.4414 Any
  4026 O4026      2.3726   -10.1248     9.2087 Any
  4027 H4027      2.8731   -10.8499     8.8585 Any
  4028 H4028      2.4309    -9.4515     8.5437 Any
  4029 O4029    -10.0378    10.6056     7.1651 Any
  4030 H4030    -10.6191    10.2575     7.8282 Any
  4031 H4031    -10.2296    10.0964     6.3887 Any
  4032 O4032      3.0646     4.2140    -8.1722 Any
  4033 H4033      2.9551     5.0456    -8.6142 Any
  4034 H4034      2.2131     3.8006    -8.2276 Any
  4035 O4035    -19.0963   -16.5791     4.9179 Any
  4036 H4036    -19.0663   -16.8913     5.8127 Any
  4037 H4037    -19.9045   -16.9315     4.5693 Any
  4038 O4038      7.9854    -8.8210     0.1785 Any
  4039 H4039      7.2132    -9.3075     0.4352 Any
  4040 H4040      7.6474    -8.0307    -0.2214 Any
  4041 O4041     16.3435   -17.6036    12.7590 Any
  4042 H4042     15.8222   -16.9357    13.1847 Any
  4043 H4043     15.7174   -18.2685    12.5045 Any
  4044 O4044    -17.0729   -15.6267     8.0207 Any
  4045 H4045    -17.8540   -15.3422     7.5647 Any
  4046 H4046    -16.5536   -16.0601     7.3564 Any
  4047 O4047    -18.2048     3.0219    11.9647 Any
  4048 H4048    -18.1261     3.8467    12.4256 Any
  4049 H4049    -18.3944     3.2667    11.0685 Any
  4050 O4050      9.1465   -15.8788    -5.9101 Any
  4051 H4051      8.6116   -15.1047    -5.7936 Any
  4052 H4052      9.9960   -15.6356    -5.5665 Any
  4053 O4053      8.0373     4.2837     7.5112 Any
  4054 H4054      7.4676     4.8880     7.9684 Any
  4055 H4055      8.4463     3.7748     8.1987 Any
  4056 O4056    -15.9330    14.9762   -17.7102 Any
  4057 H4057    -16.8255    15.2307   -17.5162 Any
  4058 H4058    -15.8928    14.9509   -18.6571 Any
  4059 O4059     -4.5212    19.9051   -10.1919 Any
  4060 H4060     -4.6445    19.7703   -11.1222 Any
  4061 H4061     -3.5957    20.0884   -10.0981 Any
  4062 O4062     16.4966    17.7781     9.8475 Any
  4063 H4063     16.6686    18.2862    10.6293 Any
  4064 H4064     15.7883    17.1972    10.0916 Any
  4065 O4065      4.2803   -19.6305    -4.2528 Any
  4066 H4066      5.1919   -19.8839    -4.3131 Any
  4067 H4067      3.8412   -20.3990    -3.9131 Any
  4068 O4068      6.2027    16.5447   -14.9200 Any
  4069 H4069      6.2384    15.9949   -15.6916 Any
  4070 H4070      5.6666    16.0600   -14.3063 Any
  4071 O4071      3.3501     6.7529    -1.9619 Any
  4072 H4072      2.6503     6.3477    -2.4569 Any
  4073 H4073      3.3392     6.3073    -1.1251 Any
  4074 O4074     17.5804   -15.1199    -6.3364 Any
  4075 H4075     16.8546   -15.6379    -6.0142 Any
  4076 H4076     18.2376   -15.1808    -5.6558 Any
  4077 O4077      4.5310    -9.6002     3.1053 Any
  4078 H4078      5.0348    -8.9414     3.5649 Any
  4079 H4079      5.0747    -9.8449     2.3682 Any
  4080 O4080     13.0574   -17.1575    18.9961 Any
  4081 H4081     13.5536   -17.9597    19.0918 Any
  4082 H4082     12.8985   -16.8679    19.8848 Any
  4083 O4083    -10.1821    -9.2645    14.8132 Any
  4084 H4084    -11.0355    -8.9147    14.5935 Any
  4085 H4085    -10.3663   -10.0842    15.2525 Any
  4086 O4086    -10.5035   -15.0971    -9.5267 Any
  4087 H4087    -11.2847   -14.7685    -9.1016 Any
  4088 H4088     -9.9401   -15.3679    -8.8139 Any
  4089 O4089    -13.5046     7.9818    -9.6355 Any
  4090 H4090    -12.7689     8.5483    -9.4436 Any
  4091 H4091    -13.1119     7.1845    -9.9655 Any
  4092 O4092      6.3437   -16.3475   -11.1208 Any
  4093 H4093      5.9702   -17.1428   -11.4769 Any
  4094 H4094      6.8905   -16.6409   -10.4040 Any
  4095 O4095     17.8586   -14.2800   -14.4684 Any
  4096 H4096     16.9715   -13.9521   -14.4024 Any
  4097 H4097     18.3350   -13.5912   -14.9128 Any
  4098 O4098     -1.5828   -10.7434    12.5461 Any
  4099 H4099     -1.3198   -10.1998    13.2771 Any
  4100 H4100     -0.9398   -10.5648    11.8726 Any
  4101 O4101     14.7531     8.4827   -14.9403 Any
  4102 H4102     13.8484     8.7333   -14.8077 Any
  4103 H4103     14.7183     7.8050   -15.6024 Any
  4104 O4104      8.8109   -18.5300   -17.1506 Any
  4105 H4105      8.7299   -17.5908   -17.2517 Any
  4106 H4106      8.7978   -18.6709   -16.2131 Any
  4107 O4107      3.1094     8.9247   -19.0371 Any
  4108 H4108      3.0584     9.1685   -19.9519 Any
  4109 H4109      3.7830     9.4869   -18.6777 Any
  4110 O4110      9.3727    -2.5018    18.9742 Any
  4111 H4111      8.8140    -1.9683    19.5239 Any
  4112 H4112      9.4015    -2.0418    18.1457 Any
  4113 O4113      4.0835    -9.7019   -12.9436 Any
  4114 H4114      3.3175    -9.2125   -12.6740 Any
  4115 H4115      4.2078    -9.4678   -13.8539 Any
  4116 O4116     14.8498     6.8518    -7.0016 Any
  4117 H4117     14.8777     6.6090    -6.0855 Any
  4118 H4118     15.6447     6.4885    -7.3690 Any
  4119 O4119     -7.6273    18.9149   -10.5698 Any
  4120 H4120     -8.0154    18.3223   -11.2001 Any
  4121 H4121     -7.0833    18.3611   -10.0254 Any
  4122 O4122     13.3201     7.6399     6.6098 Any
  4123 H4123     13.3522     7.2977     5.7262 Any
  4124 H4124     12.5604     8.2071     6.6184 Any
  4125 O4125     18.3413    20.1997    18.7599 Any
  4126 H4126     19.1242    20.4240    19.2453 Any
  4127 H4127     18.1157    19.3292    19.0602 Any
  4128 O4128     -9.7660    -1.3991    -5.1604 Any
  4129 H4129     -9.6883    -0.7270    -4.4962 Any
  4130 H4130     -9.8663    -0.9210    -5.9729 Any
  4131 O4131    -18.8041    14.5866   -14.5795 Any
  4132 H4132    -19.4907    14.0050   -14.2809 Any
  4133 H4133    -19.2641    15.3275   -14.9514 Any
  4134 O4134     17.6533   -15.1330     1.9850 Any
  4135 H4135     18.5792   -15.1039     2.1871 Any
  4136 H4136     17.5386   -15.9445     1.5084 Any
  4137 O4137     17.2219    19.0929   -11.0554 Any
  4138 H4138     17.6666    18.5123   -11.6588 Any
  4139 H4139     17.9078    19.4158   -10.4860 Any
  4140 O4140      2.5100    11.8087     0.9543 Any
  4141 H4141      2.8586    10.9280     0.9123 Any
  4142 H4142      3.2466    12.3445     1.2176 Any
  4143 O4143      3.3815    -4.3158   -15.6000 Any
  4144 H4144      2.5133    -4.6873   -15.5148 Any
  4145 H4145      3.4410    -4.0549   -16.5095 Any
  4146 O4146      0.1113    -4.8460    -5.5347 Any
  4147 H4147      0.7940    -5.2786    -6.0303 Any
  4148 H4148     -0.6418    -5.4157    -5.6185 Any
  4149 O4149     12.3165   -16.4688   -18.3462 Any
  4150 H4150     11.5563   -16.3713   -17.7881 Any
  4151 H4151     12.6049   -15.5813   -18.5135 Any
  4152 O4152      6.5578   -16.8769    19.1549 Any
  4153 H4153      6.3893   -17.7994    19.0152 Any
  4154 H4154      6.1715   -16.4474    18.4030 Any
  4155 O4155    -15.5714   -10.5067   -12.6149 Any
  4156 H4156    -16.2007   -10.1833   -11.9838 Any
  4157 H4157    -14.7286   -10.3706   -12.2024 Any
  4158 O4158     12.3685   -16.3863     9.2563 Any
  4159 H4159     13.0541   -16.8352     8.7796 Any
  4160 H4160     11.6991   -16.2155     8.6070 Any
  4161 O4161    -14.6809    11.9065     0.3018 Any
  4162 H4162    -15.4878    11.5714     0.6701 Any
  4163 H4163    -14.9090    12.7644    -0.0312 Any
  4164 O4164     19.5423    -6.8423     7.8788 Any
  4165 H4165     18.9330    -7.5682     7.8545 Any
  4166 H4166     19.0530    -6.1334     8.2751 Any
  4167 O4167     14.8623    -7.7733    -7.1893 Any
  4168 H4168     13.9586    -7.9196    -6.9427 Any
  4169 H4169     14.9126    -6.8441    -7.3708 Any
  4170 O4170     15.6165   -18.3864    19.3481 Any
  4171 H4171     15.6818   -18.1749    20.2700 Any
  4172 H4172     16.1858   -19.1360    19.2345 Any
  4173 O4173     -0.5314    -3.2333     8.7857 Any
  4174 H4174     -1.1183    -3.9522     8.5919 Any
  4175 H4175      0.0819    -3.2245     8.0627 Any
  4176 O4176      7.5524     6.8578     5.7760 Any
  4177 H4177      7.9835     6.3481     6.4492 Any
  4178 H4178      6.9181     6.2640     5.3966 Any
  4179 O4179     -2.5977    11.7594    -7.2712 Any
  4180 H4180     -2.6024    12.7064    -7.2270 Any
  4181 H4181     -3.3086    11.5447    -7.8607 Any
  4182 O4182      2.4513    10.5120    11.3021 Any
  4183 H4183      2.6312    11.3651    11.6747 Any
  4184 H4184      3.2274    10.3031    10.7991 Any
  4185 O4185     -1.0712    13.8955    17.9717 Any
  4186 H4186     -1.0156    13.1383    17.4037 Any
  4187 H4187     -0.2298    14.3232    17.8818 Any
  4188 O4188    -12.5317    13.7784    19.7324 Any
  4189 H4189    -13.2348    14.3247    19.4067 Any
  4190 H4190    -11.8055    14.3746    19.8592 Any
  4191 O4191      1.8025    13.5840    -8.7893 Any
  4192 H4192      2.0177    14.1779    -8.0822 Any
  4193 H4193      2.6420    13.2994    -9.1255 Any
  4194 O4194      8.5922    10.1787    -7.1236 Any
  4195 H4195      9.0829     9.4105    -6.8630 Any
  4196 H4196      8.1409     9.9163    -7.9151 Any
  4197 O4197     11.6803     5.6564   -16.6852 Any
  4198 H4198     12.3433     5.5909   -17.3598 Any
  4199 H4199     11.6353     4.7869   -16.3098 Any
  4200 O4200      2.6725   -10.7045     5.2960 Any
  4201 H4201      1.9733   -11.2803     5.5762 Any
  4202 H4202      3.3827   -11.2878     5.0629 Any
  4203 O4203    -14.5133   -16.2920    -4.7649 Any
  4204 H4204    -15.0189   -17.0883    -4.6695 Any
  4205 H4205    -13.9499   -16.2745    -4.0026 Any
  4206 O4206     -4.3189   -18.9924   -16.5216 Any
  4207 H4207     -3.5768   -19.5011   -16.8208 Any
  4208 H4208     -5.0263   -19.6199   -16.4536 Any
  4209 O4209    -12.7774    -0.1559    -5.0260 Any
  4210 H4210    -11.8313    -0.1270    -5.0792 Any
  4211 H4211    -13.0433    -0.6650    -5.7803 Any
  4212 O4212      5.2303    -0.0298    11.8572 Any
  4213 H4213      6.1328     0.1279    11.6132 Any
  4214 H4214      5.2654    -0.2313    12.7830 Any
  4215 O4215     -7.7511   -11.0415     9.4075 Any
  4216 H4216     -7.2548   -10.5275    10.0308 Any
  4217 H4217     -8.4834   -11.3791     9.9062 Any
  4218 O4218     17.7161    -3.5621     9.3045 Any
  4219 H4219     18.5911    -3.2435     9.1262 Any
  4220 H4220     17.5876    -3.4012    10.2299 Any
  4221 O4221    -14.3631     6.5821     3.9741 Any
  4222 H4222    -14.6368     5.7786     4.3964 Any
  4223 H4223    -13.9100     6.2979     3.1913 Any
  4224 O4224     -2.0680    19.8512   -17.5250 Any
  4225 H4225     -2.2253    19.7507   -18.4546 Any
  4226 H4226     -1.4974    19.1281   -17.3001 Any
  4227 O4227      2.3311    -3.4873    -3.3181 Any
  4228 H4228      2.2075    -3.9770    -2.5157 Any
  4229 H4229      1.6212    -2.8590    -3.3258 Any
  4230 O4230    -10.3070    -1.6374     0.0988 Any
  4231 H4231    -10.4548    -2.2554     0.8024 Any
  4232 H4232    -11.1149    -1.6433    -0.3974 Any
  4233 O4233      9.7007   -13.9377   -13.9575 Any
  4234 H4234      9.6419   -13.7953   -13.0220 Any
  4235 H4235     10.3675   -13.3302   -14.2497 Any
  4236 O4236      4.4361   -14.5819    -9.6552 Any
  4237 H4237      3.9245   -15.3551    -9.4567 Any
  4238 H4238      5.3223   -14.9025    -9.7586 Any
  4239 O4239     -3.2670    11.4937    12.9645 Any
  4240 H4240     -3.1862    10.5634    13.1286 Any
  4241 H4241     -2.3772    11.7893    12.8241 Any
  4242 O4242     -4.1923    -4.1685     4.6656 Any
  4243 H4243     -4.7474    -4.8682     4.9839 Any
  4244 H4244     -4.7958    -3.4863     4.4023 Any
  4245 O4245      9.9873     1.2013    -2.8899 Any
  4246 H4246     10.1730     1.7689    -2.1535 Any
  4247 H4247     10.5327     0.4391    -2.7469 Any
  4248 O4248     -4.0953   -10.5611   -15.4186 Any
  4249 H4249     -4.2083    -9.9903   -14.6701 Any
  4250 H4250     -4.0514   -11.4332   -15.0491 Any
  4251 O4251    -10.3937   -10.6652   -19.9774 Any
  4252 H4252    -10.3795   -10.2644   -19.1183 Any
  4253 H4253    -10.4600   -11.5953   -19.8056 Any
  4254 O4254     -7.4092     7.4389     0.4003 Any
  4255 H4255     -6.9088     6.6377     0.3197 Any
  4256 H4256     -7.5686     7.7115    -0.4937 Any
  4257 O4257      7.3216   -16.7473     2.7125 Any
  4258 H4258      6.5190   -16.9828     2.2660 Any
  4259 H4259      7.1002   -16.7796     3.6338 Any
  4260 O4260     -3.0012     8.8167    13.4854 Any
  4261 H4261     -2.3277     8.1676    13.3310 Any
  4262 H4262     -2.9392     9.0091    14.4118 Any
  4263 O4263      9.5307    -6.7478    -8.2932 Any
  4264 H4264      9.5872    -7.6905    -8.2094 Any
  4265 H4265      8.9913    -6.6085    -9.0604 Any
  4266 O4266      8.0028   -18.4070    -3.4400 Any
  4267 H4267      8.9018   -18.2323    -3.1947 Any
  4268 H4268      8.0272   -18.5031    -4.3829 Any
  4269 O4269     10.5971   -14.2221    12.8249 Any
  4270 H4270      9.9239   -13.8670    12.2596 Any
  4271 H4271     11.2576   -13.5430    12.8649 Any
  4272 O4272     -0.4631     1.4953     3.9924 Any
  4273 H4273      0.2795     1.9625     4.3520 Any
  4274 H4274     -0.5256     0.7075     4.5162 Any
  4275 O4275     10.7773     6.5206    -1.6869 Any
  4276 H4276     10.1305     7.1408    -1.3771 Any
  4277 H4277     10.7860     6.6352    -2.6280 Any
  4278 O4278      3.7119    19.6946   -15.8315 Any
  4279 H4279      3.2361    18.9007   -15.6259 Any
  4280 H4280      4.6211    19.4743   -15.6778 Any
  4281 O4281     15.0714     7.4705    17.8522 Any
  4282 H4282     15.1992     8.3637    18.1436 Any
  4283 H4283     14.1638     7.2822    18.0514 Any
  4284 O4284      9.6286    18.3430     3.2132 Any
  4285 H4285      9.1775    18.9186     3.8166 Any
  4286 H4286      8.9560    17.7537     2.8979 Any
  4287 O4287      5.2435    12.8733    -2.8136 Any
  4288 H4288      5.4958    12.1404    -2.2676 Any
  4289 H4289      5.6065    13.6323    -2.3766 Any
  4290 O4290     -0.6155   -17.9117     3.7356 Any
  4291 H4291      0.0094   -17.3030     4.1069 Any
  4292 H4292     -0.0994   -18.6732     3.5063 Any
  4293 O4293     -6.4851     1.5861   -12.1759 Any
  4294 H4294     -6.8353     1.7199   -13.0467 Any
  4295 H4295     -5.5509     1.4906   -12.3067 Any
  4296 O4296    -11.5997   -18.6103    10.7717 Any
  4297 H4297    -11.4709   -19.1855    11.5142 Any
  4298 H4298    -11.1404   -17.8141    11.0042 Any
  4299 O4299     16.5896    19.9325     7.8066 Any
  4300 H4300     16.3205    19.1754     8.3098 Any
  4301 H4301     17.3270    20.2873     8.2854 Any
  4302 O4302    -16.2664   -17.8828    19.5761 Any
  4303 H4303    -16.4347   -17.0259    19.9453 Any
  4304 H4304    -16.9050   -17.9727    18.8811 Any
  4305 O4305    -11.4078     5.0601    16.9003 Any
  4306 H4306    -10.6134     5.1860    16.3984 Any
  4307 H4307    -12.0229     4.6859    16.2833 Any
  4308 O4308     -4.1873     0.8022    11.1061 Any
  4309 H4309     -3.6024     1.3997    10.6591 Any
  4310 H4310     -4.6956     0.4025    10.4127 Any
  4311 O4311    -16.8885    13.5182    19.4471 Any
  4312 H4312    -17.0246    12.5817    19.3884 Any
  4313 H4313    -17.7529    13.8921    19.3374 Any
  4314 O4314     14.2357    17.6993     8.1923 Any
  4315 H4315     14.1767    16.9613     7.6000 Any
  4316 H4316     14.1195    17.3228     9.0546 Any
  4317 O4317      9.4867    11.9943   -11.2215 Any
  4318 H4318      8.6404    12.3554   -10.9928 Any
  4319 H4319     10.1132    12.5841   -10.8232 Any
  4320 O4320      9.9595     9.1353   -10.0524 Any
  4321 H4321      9.5275     9.3121   -10.8776 Any
  4322 H4322     10.6351     9.7976    -9.9902 Any
  4323 O4323     15.0188   -13.4985    -5.6840 Any
  4324 H4324     15.7590   -12.9961    -5.9980 Any
  4325 H4325     14.8855   -14.1651    -6.3448 Any
  4326 O4326      8.6928    15.9390    -4.0988 Any
  4327 H4327      9.6159    16.0250    -3.9006 Any
  4328 H4328      8.3164    15.5526    -3.3191 Any
  4329 O4329     18.8459    -9.7532    -4.3224 Any
  4330 H4330     18.9061   -10.5862    -4.7710 Any
  4331 H4331     18.2198    -9.2537    -4.8298 Any
  4332 O4332     12.2847   -11.3936   -11.8780 Any
  4333 H4333     13.1983   -11.3004   -11.6422 Any
  4334 H4334     12.2573   -11.2020   -12.8061 Any
  4335 O4335     13.3901    12.2882    -7.0279 Any
  4336 H4336     12.6536    12.7099    -7.4506 Any
  4337 H4337     13.0583    12.0218    -6.1807 Any
  4338 O4338     19.0791    12.0608    -7.9010 Any
  4339 H4339     18.3587    12.3965    -7.3841 Any
  4340 H4340     19.7862    12.6744    -7.7514 Any
  4341 O4341    -15.8387    18.2706    16.7324 Any
  4342 H4342    -16.0401    18.6299    15.8784 Any
  4343 H4343    -16.6403    18.3713    17.2286 Any
  4344 O4344     10.3447     2.1873    -7.5811 Any
  4345 H4345     10.7105     2.3857    -6.7292 Any
  4346 H4346      9.4242     2.0323    -7.4150 Any
  4347 O4347      3.2849    -3.2549    -8.4849 Any
  4348 H4348      3.9783    -3.0674    -7.8661 Any
  4349 H4349      2.6913    -3.8238    -8.0127 Any
  4350 O4350    -14.9828   -11.5442    -0.7135 Any
  4351 H4351    -15.3018   -12.4368    -0.7349 Any
  4352 H4352    -15.4259   -11.1503     0.0264 Any
  4353 O4353    -19.5220    -0.2422    -9.7746 Any
  4354 H4354    -20.4656    -0.2788    -9.6901 Any
  4355 H4355    -19.3635     0.4810   -10.3668 Any
  4356 O4356    -16.2703   -15.3306   -19.1126 Any
  4357 H4357    -16.1211   -14.7640   -18.3672 Any
  4358 H4358    -16.7603   -14.7965   -19.7238 Any
  4359 O4359     -2.3245    14.5091    12.5563 Any
  4360 H4360     -1.6597    14.0814    13.0798 Any
  4361 H4361     -3.0712    14.5861    13.1355 Any
  4362 O4362    -13.5908   -11.8847   -10.8856 Any
  4363 H4363    -14.2031   -12.0646   -10.1844 Any
  4364 H4364    -13.5504   -12.6926   -11.3801 Any
  4365 O4365    -18.8022    11.1446     0.1448 Any
  4366 H4366    -18.3585    11.4041    -0.6518 Any
  4367 H4367    -19.4564    10.5199    -0.1392 Any
  4368 O4368     -6.5674    -2.1861    18.3516 Any
  4369 H4369     -6.4662    -1.4680    18.9623 Any
  4370 H4370     -6.7172    -2.9455    18.8991 Any
  4371 O4371     17.9483     1.8701   -17.3040 Any
  4372 H4372     18.2416     2.3928   -16.5694 Any
  4373 H4373     18.4009     2.2357   -18.0526 Any
  4374 O4374     -6.7906    -6.1642    -4.9928 Any
  4375 H4375     -6.6193    -5.8031    -4.1331 Any
  4376 H4376     -7.5658    -5.7083    -5.2929 Any
  4377 O4377     -4.3932    -9.6024    -2.5474 Any
  4378 H4378     -3.8123   -10.3035    -2.8119 Any
  4379 H4379     -3.8571    -8.8214    -2.5855 Any
  4380 O4380     -4.8861   -19.2558    -2.9957 Any
  4381 H4381     -5.7694   -19.1954    -2.6565 Any
  4382 H4382     -4.5336   -18.3809    -2.9002 Any
  4383 O4383    -20.0396    11.2907   -18.7041 Any
  4384 H4384    -20.0249    10.6922   -19.4393 Any
  4385 H4385    -19.2008    11.1677   -18.2797 Any
  4386 O4386     -1.6684   -15.7663   -14.3699 Any
  4387 H4387     -2.3186   -15.6156   -13.6965 Any
  4388 H4388     -1.8229   -16.6570   -14.6555 Any
  4389 O4389      2.4749    10.6028    -2.4256 Any
  4390 H4390      1.5418    10.5827    -2.5923 Any
  4391 H4391      2.7876    11.3555    -2.9100 Any
  4392 O4392     13.6889    -9.3491     7.4790 Any
  4393 H4393     13.6834   -10.2948     7.5458 Any
  4394 H4394     14.0408    -9.0534     8.3083 Any
  4395 O4395     17.8346     6.4049   -15.7040 Any
  4396 H4396     17.0067     5.9457   -15.7548 Any
  4397 H4397     17.8237     6.8227   -14.8530 Any
  4398 O4398      9.0347     8.9118    12.6341 Any
  4399 H4399      8.2433     9.3874    12.4189 Any
  4400 H4400      9.7145     9.5726    12.6455 Any
  4401 O4401    -18.4179   -18.2217    15.4242 Any
  4402 H4402    -18.2970   -18.7484    16.2033 Any
  4403 H4403    -19.0237   -17.5416    15.6878 Any
  4404 O4404    -14.8656    -6.0989    11.9641 Any
  4405 H4405    -15.6230    -6.0643    12.5333 Any
  4406 H4406    -14.3269    -5.3688    12.2393 Any
  4407 O4407     19.3110   -16.6810    15.7016 Any
  4408 H4408     18.6804   -16.7577    16.4054 Any
  4409 H4409     18.9320   -16.0442    15.1102 Any
  4410 O4410      6.2160    15.0602    -0.8107 Any
  4411 H4411      6.3314    15.9919    -0.9431 Any
  4412 H4412      6.7753    14.8530    -0.0737 Any
  4413 O4413     -4.0073    11.1387    -3.1928 Any
  4414 H4414     -4.7117    11.5444    -2.7048 Any
  4415 H4415     -4.1296    10.2081    -3.0590 Any
  4416 O4416     -8.0532    19.0308    12.6914 Any
  4417 H4417     -7.8765    18.2712    13.2306 Any
  4418 H4418     -8.5329    18.6894    11.9483 Any
  4419 O4419      8.0863    -3.7646     6.6711 Any
  4420 H4420      7.5386    -3.0002     6.5500 Any
  4421 H4421      8.7478    -3.6934     5.9957 Any
  4422 O4422     -5.6278    13.1086    16.1792 Any
  4423 H4423     -6.5395    13.1232    16.4390 Any
  4424 H4424     -5.3920    14.0221    16.0850 Any
  4425 O4425     -3.2238    -4.3745    -6.8099 Any
  4426 H4426     -2.9688    -5.2642    -6.6044 Any
  4427 H4427     -2.8739    -4.2204    -7.6774 Any
  4428 O4428      8.0652   -13.4476    17.9077 Any
  4429 H4429      8.3658   -13.2074    17.0412 Any
  4430 H4430      8.7230   -14.0495    18.2300 Any
  4431 O4431    -16.5217     4.8013     2.7694 Any
  4432 H4432    -16.1957     5.3778     2.0909 Any
  4433 H4433    -17.4539     4.7439     2.6059 Any
  4434 O4434     -0.7464    -2.3518    -6.7026 Any
  4435 H4435     -0.7348    -2.3874    -7.6500 Any
  4436 H4436     -0.6865    -3.2576    -6.4292 Any
  4437 O4437      5.7775     1.5677     9.2964 Any
  4438 H4438      5.4735     1.5870     8.3986 Any
  4439 H4439      5.6614     2.4560     9.6067 Any
  4440 O4440     -2.2825    -5.2784     8.7047 Any
  4441 H4441     -2.5254    -5.8959     9.3819 Any
  4442 H4442     -2.5135    -5.7111     7.8933 Any
  4443 O4443     -7.7850     2.2952   -14.6879 Any
  4444 H4444     -7.1908     2.0759   -15.3933 Any
  4445 H4445     -8.4376     1.6076   -14.7033 Any
  4446 O4446      7.1413    -0.8041    13.9179 Any
  4447 H4447      7.9961    -0.7116    13.5184 Any
  4448 H4448      7.1350    -1.6859    14.2661 Any
  4449 O4449     -8.8341   -17.2081     9.7730 Any
  4450 H4450     -8.7348   -17.8054     9.0434 Any
  4451 H4451     -7.9572   -17.1060    10.1187 Any
  4452 O4452     -6.2997     1.6611    15.9360 Any
  4453 H4453     -7.1556     2.0655    15.8839 Any
  4454 H4454     -6.1624     1.2820    15.0779 Any
  4455 O4455    -16.4237    -9.9200    -8.9037 Any
  4456 H4456    -17.1413    -9.3053    -8.8260 Any
  4457 H4457    -15.6555    -9.4223    -8.6567 Any
  4458 O4458      0.4754    -6.5298    -2.8117 Any
  4459 H4459      0.1723    -5.8282    -3.3727 Any
  4460 H4460      1.0062    -6.0981    -2.1554 Any
  4461 O4461    -11.4903     3.3590     5.0360 Any
  4462 H4462    -10.5772     3.1035     5.0337 Any
  4463 H4463    -11.5418     4.0657     4.4060 Any
  4464 O4464      7.4873    16.4783   -19.7992 Any
  4465 H4465      8.2839    16.4521   -20.3126 Any
  4466 H4466      7.7164    16.9815   -19.0290 Any
  4467 O4467      3.1551     1.7013     2.3116 Any
  4468 H4468      2.3630     1.2213     2.1088 Any
  4469 H4469      3.8533     1.1755     1.9442 Any
  4470 O4470     -9.2102     5.0798    14.5485 Any
  4471 H4471     -8.9353     4.8565    13.6690 Any
  4472 H4472     -9.3470     6.0176    14.5248 Any
  4473 O4473      0.5879   -12.5361   -12.4984 Any
  4474 H4474      1.4094   -12.4812   -12.0283 Any
  4475 H4475      0.3751   -11.6373   -12.7125 Any
  4476 O4476      2.2564     5.9757    14.4469 Any
  4477 H4477      2.6081     6.5892    15.0784 Any
  4478 H4478      1.9673     6.5169    13.7241 Any
  4479 O4479    -18.5729     2.6260    17.5440 Any
  4480 H4480    -18.7786     1.7162    17.7138 Any
  4481 H4481    -19.0468     2.8333    16.7494 Any
  4482 O4482     13.8486    -6.0963     8.8776 Any
  4483 H4483     13.1134    -5.9943     9.4676 Any
  4484 H4484     14.6102    -6.0896     9.4422 Any
  4485 O4485     14.9432    11.8688    -3.8083 Any
  4486 H4486     14.9547    12.6424    -3.2603 Any
  4487 H4487     14.0239    11.6570    -3.9026 Any
  4488 O4488    -16.9612     6.1955    -4.4738 Any
  4489 H4489    -17.2560     5.4856    -5.0289 Any
  4490 H4490    -17.5672     6.9031    -4.6495 Any
  4491 O4491     13.9371    -6.8417    12.0400 Any
  4492 H4492     13.4677    -7.6443    12.2255 Any
  4493 H4493     13.2923    -6.1562    12.1552 Any
  4494 O4494     16.8896    20.0996     5.2386 Any
  4495 H4495     16.8360    19.2267     4.8726 Any
  4496 H4496     16.9121    19.9640     6.1767 Any
  4497 O4497    -17.2245   -19.8808   -18.1412 Any
  4498 H4498    -16.7172   -19.0808   -18.1816 Any
  4499 H4499    -16.5807   -20.5745   -18.1975 Any
  4500 O4500     -3.7975    -7.7794   -14.4125 Any
  4501 H4501     -3.7146    -8.2826   -13.6133 Any
  4502 H4502     -3.9718    -6.8945   -14.1202 Any
  4503 O4503    -19.4464    -5.0868     1.6071 Any
  4504 H4504    -19.8837    -5.9247     1.5331 Any
  4505 H4505    -18.5526    -5.2601     1.3425 Any
  4506 O4506      2.6347     9.2849   -10.6034 Any
  4507 H4507      3.5127     9.2840   -10.2456 Any
  4508 H4508      2.6594     8.6396   -11.2975 Any
  4509 O4509     11.6998   -11.3785    15.4128 Any
  4510 H4510     11.2275   -10.5840    15.6239 Any
  4511 H4511     12.0188   -11.6952    16.2476 Any
  4512 O4512     -3.8120   -16.7707    -2.8614 Any
  4513 H4513     -3.8414   -16.7919    -1.9140 Any
  4514 H4514     -2.8887   -16.7166    -3.0702 Any
  4515 O4515      7.1256     9.4127     1.8023 Any
  4516 H4516      6.1811     9.3518     1.8590 Any
  4517 H4517      7.2935    10.3205     1.5866 Any
  4518 O4518     -0.9581    -4.1212    -3.1852 Any
  4519 H4519     -1.8430    -4.3541    -3.4335 Any
  4520 H4520     -0.4580    -4.1954    -3.9873 Any
  4521 O4521     -7.3900   -15.9082   -16.5665 Any
  4522 H4522     -6.8896   -15.5145   -15.8639 Any
  4523 H4523     -7.8355   -15.1800   -16.9790 Any
  4524 O4524      0.6847    19.5735   -11.8178 Any
  4525 H4525      0.7383    19.9170   -10.9357 Any
  4526 H4526      1.3576    20.0394   -12.2964 Any
  4527 O4527      4.9425   -11.0574   -10.6317 Any
  4528 H4528      5.6776   -10.5453   -10.3213 Any
  4529 H4529      4.5603   -10.5319   -11.3220 Any
  4530 O4530     -7.7525    -8.8225   -14.5418 Any
  4531 H4531     -7.5357    -8.5036   -15.4079 Any
  4532 H4532     -7.2098    -8.3107   -13.9565 Any
  4533 O4533    -10.7012    14.2758    -5.2288 Any
  4534 H4534    -10.4825    15.1808    -5.0494 Any
  4535 H4535    -11.2245    14.3090    -6.0187 Any
  4536 O4536    -18.0205    -1.7067   -13.6120 Any
  4537 H4537    -18.8356    -1.4929   -13.1775 Any
  4538 H4538    -17.8464    -0.9620   -14.1723 Any
  4539 O4539     19.7493     0.4205     7.1045 Any
  4540 H4540     19.9803     0.5452     8.0156 Any
  4541 H4541     18.8658     0.0773     7.1274 Any
  4542 O4542     -2.7011    16.5470   -17.9778 Any
  4543 H4543     -2.1546    16.3124   -17.2394 Any
  4544 H4544     -2.2952    16.1192   -18.7202 Any
  4545 O4545    -15.5174    15.7966     9.0379 Any
  4546 H4546    -15.1368    15.9458     8.1824 Any
  4547 H4547    -16.3412    15.3625     8.8600 Any
  4548 O4548      2.8712   -10.3487    19.6800 Any
  4549 H4549      2.5761    -9.7675    20.3685 Any
  4550 H4550      2.4735   -10.0050    18.8910 Any
  4551 O4551     -1.3855   -17.6773    15.8544 Any
  4552 H4552     -1.5821   -17.7526    16.7788 Any
  4553 H4553     -0.4573   -17.8599    15.7923 Any
  4554 O4554     17.5279    -8.8741     7.5727 Any
  4555 H4555     17.0991    -8.6515     8.3884 Any
  4556 H4556     17.5794    -9.8208     7.5809 Any
  4557 O4557      3.8480    18.0718   -12.9731 Any
  4558 H4558      3.8564    18.7706   -13.6139 Any
  4559 H4559      3.1404    17.5041   -13.2486 Any
  4560 O4560     -2.6075   -13.8465    -6.9370 Any
  4561 H4561     -2.2142   -13.1084    -6.4904 Any
  4562 H4562     -1.9193   -14.1806    -7.4970 Any
  4563 O4563    -15.8785     2.5339    16.9733 Any
  4564 H4564    -16.7386     2.4878    17.3696 Any
  4565 H4565    -16.0157     3.0003    16.1593 Any
  4566 O4566      6.6569     6.8164    -2.7197 Any
  4567 H4567      6.5749     6.8857    -1.7777 Any
  4568 H4568      6.1662     7.5544    -3.0567 Any
  4569 O4569    -19.0948     7.3199    18.9365 Any
  4570 H4570    -19.1232     8.2663    18.8883 Any
  4571 H4571    -18.2323     7.1243    19.2783 Any
  4572 O4572    -16.0057   -12.9205    11.8766 Any
  4573 H4573    -15.2934   -13.4226    11.5032 Any
  4574 H4574    -16.3314   -13.4594    12.5854 Any
  4575 O4575      7.8858   -10.6721    -3.4163 Any
  4576 H4576      6.9829   -10.7981    -3.6768 Any
  4577 H4577      7.9195   -10.9749    -2.5185 Any
  4578 O4578     -9.3703    -0.3143    12.0002 Any
  4579 H4579     -9.4358    -1.0159    12.6345 Any
  4580 H4580    -10.2265    -0.2791    11.5944 Any
  4581 O4581      2.5954     7.9309    16.4003 Any
  4582 H4582      2.0386     8.6977    16.3700 Any
  4583 H4583      2.7669     7.7969    17.3231 Any
  4584 O4584     17.0136    -7.6082    -0.1958 Any
  4585 H4585     17.3383    -8.3864    -0.6292 Any
  4586 H4586     16.8177    -7.8915     0.6876 Any
  4587 O4587    -15.2813    -0.0745    -3.9425 Any
  4588 H4588    -15.5338    -0.9525    -3.6888 Any
  4589 H4589    -14.3735    -0.1537    -4.2041 Any
  4590 O4590     14.4269    17.8768   -13.1089 Any
  4591 H4591     14.4605    17.9930   -14.0492 Any
  4592 H4592     14.6539    18.7267   -12.7553 Any
  4593 O4593     12.8418   -17.7414    16.3441 Any
  4594 H4594     12.1898   -17.0846    16.1381 Any
  4595 H4595     13.0555   -17.5878    17.2549 Any
  4596 O4596      9.1471     0.2105   -10.2445 Any
  4597 H4597      9.7526    -0.2611    -9.6879 Any
  4598 H4598      9.5385     1.0675   -10.3503 Any
  4599 O4599    -10.7992     7.4879     8.0080 Any
  4600 H4600    -11.2789     7.2316     8.7846 Any
  4601 H4601     -9.9092     7.6159     8.3087 Any
  4602 O4602     -3.3570     3.0233    16.4799 Any
  4603 H4603     -4.0699     2.5001    16.1380 Any
  4604 H4604     -3.0122     2.5141    17.2015 Any
  4605 O4605     15.3949   -17.9813     2.7179 Any
  4606 H4606     14.8467   -18.0411     3.4891 Any
  4607 H4607     16.1037   -18.5894     2.8815 Any
  4608 O4608     18.0332   -11.2491    -8.6593 Any
  4609 H4609     18.1068   -11.8431    -9.3946 Any
  4610 H4610     17.1593   -10.8885    -8.7305 Any
  4611 O4611      5.2564     3.7180   -14.3849 Any
  4612 H4612      4.7249     3.5472   -15.1512 Any
  4613 H4613      4.6352     3.9740   -13.7160 Any
  4614 O4614     -9.3826     8.3621   -11.9188 Any
  4615 H4615    -10.2550     8.2052   -11.5826 Any
  4616 H4616     -8.9396     8.8302   -11.2234 Any
  4617 O4617      7.2721     1.3750    15.9501 Any
  4618 H4618      7.2905     0.7986    16.7027 Any
  4619 H4619      7.2599     0.7914    15.2030 Any
  4620 O4620     14.2089    -2.2432    19.3316 Any
  4621 H4621     14.6626    -1.9445    20.1086 Any
  4622 H4622     13.3126    -1.9596    19.4549 Any
  4623 O4623     12.3951   -15.4631   -10.2100 Any
  4624 H4624     12.1436   -15.5936   -11.1148 Any
  4625 H4625     12.3739   -14.5228   -10.0899 Any
  4626 O4626    -17.7459     1.9291     4.6546 Any
  4627 H4627    -18.2064     1.7403     3.8477 Any
  4628 H4628    -17.5917     1.0793     5.0456 Any
  4629 O4629    -15.5883   -13.6504   -16.2205 Any
  4630 H4630    -15.9337   -14.2510   -15.5733 Any
  4631 H4631    -14.6590   -13.6102   -16.0367 Any
  4632 O4632    -19.4771     5.4999    16.6365 Any
  4633 H4633    -18.6069     5.3647    16.2853 Any
  4634 H4634    -19.3337     5.7485    17.5401 Any
  4635 O4635     -9.5087     3.8933   -17.5916 Any
  4636 H4636     -9.3247     4.6513   -17.0526 Any
  4637 H4637     -8.6934     3.7180   -18.0428 Any
  4638 O4638     -5.8229    -6.3417     0.4736 Any
  4639 H4639     -5.5350    -5.5346     0.8792 Any
  4640 H4640     -5.7120    -6.9999     1.1470 Any
  4641 O4641     -1.3929    -9.4383     5.2117 Any
  4642 H4642     -2.0581   -10.0485     5.5017 Any
  4643 H4643     -1.8562    -8.6199     5.0915 Any
  4644 O4644     15.6449     5.2465    14.7536 Any
  4645 H4645     16.2579     5.7402    15.2823 Any
  4646 H4646     15.5691     4.4105    15.1945 Any
  4647 O4647     -9.5217     6.6169     5.6906 Any
  4648 H4648    -10.1675     7.0299     6.2486 Any
  4649 H4649     -8.9509     6.1534     6.2891 Any
  4650 O4650    -19.5765     1.6733    -6.7141 Any
  4651 H4651    -18.8835     1.0427    -6.5693 Any
  4652 H4652    -19.5030     1.9020    -7.6313 Any
  4653 O4653      1.7175   -20.0178    -2.0825 Any
  4654 H4654      2.3311   -19.7334    -1.4180 Any
  4655 H4655      1.4022   -19.2146    -2.4753 Any
  4656 O4656    -13.8613    -4.6465     8.0771 Any
  4657 H4657    -14.6173    -4.7111     7.5086 Any
  4658 H4658    -13.1859    -5.1421     7.6330 Any
  4659 O4659     17.7947     1.0735    -9.8282 Any
  4660 H4660     17.2171     1.8213    -9.9055 Any
  4661 H4661     17.5687     0.5205   -10.5644 Any
  4662 O4662    -11.2471     7.5691    -5.9533 Any
  4663 H4663    -12.0812     7.4957    -6.3980 Any
  4664 H4664    -11.4204     8.1360    -5.2134 Any
  4665 O4665      8.9644     5.4465    19.5344 Any
  4666 H4666      8.5537     5.3302    18.6878 Any
  4667 H4667      9.5368     6.1937    19.4211 Any
  4668 O4668    -13.9442    18.6357    -5.2121 Any
  4669 H4669    -13.0232    18.8581    -5.2453 Any
  4670 H4670    -14.2863    18.9101    -6.0526 Any
  4671 O4671     15.0257     1.6103    -5.7083 Any
  4672 H4672     15.9218     1.4060    -5.4758 Any
  4673 H4673     14.6546     0.7809    -5.9790 Any
  4674 O4674     -8.9422    15.6595    -8.0846 Any
  4675 H4675     -9.5741    16.2485    -7.6939 Any
  4676 H4676     -8.9158    15.9102    -8.9986 Any
  4677 O4677    -18.0955    -4.7008    -2.9338 Any
  4678 H4678    -18.8011    -4.2850    -2.4561 Any
  4679 H4679    -18.3805    -5.5979    -3.0470 Any
  4680 O4680     12.7493     9.9821   -10.4847 Any
  4681 H4681     13.4378     9.3648   -10.6942 Any
  4682 H4682     13.1849    10.8236   -10.4538 Any
  4683 O4683      0.0502    -8.2269    -5.7480 Any
  4684 H4684     -0.8387    -7.9212    -5.6247 Any
  4685 H4685      0.4073    -8.2817    -4.8714 Any
  4686 O4686     -4.8076     1.6236     1.2176 Any
  4687 H4687     -4.9936     0.7018     1.0967 Any
  4688 H4688     -3.9037     1.6491     1.5026 Any
  4689 O4689      0.3122    -3.9578    -9.5529 Any
  4690 H4690      0.5071    -4.5919    -8.8755 Any
  4691 H4691      1.1566    -3.6024    -9.7969 Any
  4692 O4692    -12.5004    18.5726    -9.2869 Any
  4693 H4693    -11.7350    18.2828    -8.8084 Any
  4694 H4694    -12.1970    19.3119    -9.7971 Any
  4695 O4695      7.3280   -16.5899     8.4516 Any
  4696 H4696      7.9770   -17.1511     8.8549 Any
  4697 H4697      6.5441   -16.7224     8.9681 Any
  4698 O4698     16.8491     6.0060     2.9624 Any
  4699 H4699     17.2266     6.8738     3.0204 Any
  4700 H4700     17.1514     5.5617     3.7435 Any
  4701 O4701     10.4441    -2.9622    14.5442 Any
  4702 H4702     10.1758    -3.3375    13.7160 Any
  4703 H4703     11.1995    -2.4302    14.3314 Any
  4704 O4704     -3.0996    17.2317    -1.9083 Any
  4705 H4705     -2.5230    16.6109    -2.3338 Any
  4706 H4706     -2.5479    17.6766    -1.2785 Any
  4707 O4707     11.4071    13.1101    11.9329 Any
  4708 H4708     11.2879    12.2402    12.2905 Any
  4709 H4709     11.2196    13.6932    12.6566 Any
  4710 O4710      3.0061     3.3180   -12.7882 Any
  4711 H4711      2.7508     2.4448   -13.0550 Any
  4712 H4712      2.1872     3.7634   -12.6150 Any
  4713 O4713    -12.1564   -12.4758    -5.2772 Any
  4714 H4714    -11.7377   -12.9754    -5.9657 Any
  4715 H4715    -11.4790   -12.3540    -4.6252 Any
  4716 O4716    -15.0251     7.6139    14.3142 Any
  4717 H4717    -15.0298     7.3720    13.3975 Any
  4718 H4718    -14.1835     7.3176    14.6348 Any
  4719 O4719     11.0810    -5.1842     9.4245 Any
  4720 H4720     10.1466    -5.0360     9.4873 Any
  4721 H4721     11.1621    -6.0996     9.1914 Any
  4722 O4722      0.9812    16.0067     3.3265 Any
  4723 H4723      0.9134    16.6424     2.6263 Any
  4724 H4724      1.8916    15.7422     3.3211 Any
  4725 O4725    -19.5936    -2.5970     2.4791 Any
  4726 H4726    -19.0899    -2.2252     1.7672 Any
  4727 H4727    -19.6547    -3.5201     2.2714 Any
  4728 O4728    -13.1292     2.5770    11.9214 Any
  4729 H4729    -12.1877     2.6660    11.9886 Any
  4730 H4730    -13.4697     3.4074    12.2270 Any
  4731 O4731     -2.6079    11.6954     2.5450 Any
  4732 H4732     -2.9789    11.6785     3.4173 Any
  4733 H4733     -1.8340    12.2372     2.6253 Any
  4734 O4734      3.8412    -1.9649    13.8192 Any
  4735 H4735      4.0778    -2.3459    14.6546 Any
  4736 H4736      3.8477    -2.6945    13.2139 Any
  4737 O4737      2.5562    17.3569   -15.3560 Any
  4738 H4738      3.0806    16.6458   -15.0120 Any
  4739 H4739      1.7056    16.9700   -15.5162 Any
  4740 O4740     -1.9432    -2.9526   -12.9182 Any
  4741 H4741     -2.2010    -2.8094   -13.8193 Any
  4742 H4742     -1.0505    -2.6365   -12.8724 Any
  4743 O4743     -9.8488   -19.0782     4.6491 Any
  4744 H4744     -9.3858   -18.5587     4.0052 Any
  4745 H4745    -10.4432   -18.4679     5.0652 Any
  4746 O4746     -7.1907    -4.0779    -8.1805 Any
  4747 H4747     -6.5238    -3.7064    -7.6182 Any
  4748 H4748     -7.7485    -3.3450    -8.4054 Any
  4749 O4749     -6.8453    -2.4536    -0.7190 Any
  4750 H4750     -7.2241    -1.9742    -1.4440 Any
  4751 H4751     -7.2938    -3.2888    -0.7250 Any
  4752 O4752      9.0960   -18.4181     9.1517 Any
  4753 H4753      9.2829   -19.1740     9.6926 Any
  4754 H4754      9.8182   -18.3789     8.5388 Any
  4755 O4755      2.1341   -19.4329     5.9446 Any
  4756 H4756      1.8410   -19.9902     6.6534 Any
  4757 H4757      2.6228   -18.7416     6.3712 Any
  4758 O4758     10.2960    13.3694   -15.3185 Any
  4759 H4759     10.4825    13.1805   -16.2287 Any
  4760 H4760     10.3702    14.3122   -15.2506 Any
  4761 O4761     12.5078   -12.0920    -6.8182 Any
  4762 H4762     12.9408   -11.3646    -6.3912 Any
  4763 H4763     13.0903   -12.8280    -6.6845 Any
  4764 O4764     10.8387   -10.0088    -4.1495 Any
  4765 H4765     10.7763    -9.2952    -3.5284 Any
  4766 H4766     10.0038   -10.4536    -4.0864 Any
  4767 O4767      2.7303    -8.8121   -18.1353 Any
  4768 H4768      2.8127    -9.2539   -17.3005 Any
  4769 H4769      3.3079    -8.0633   -18.0668 Any
  4770 O4770     19.4216    -7.9174   -10.4809 Any
  4771 H4771     19.5501    -8.5691   -11.1575 Any
  4772 H4772     20.2688    -7.8376   -10.0628 Any
  4773 O4773      8.8677    11.4930    -0.1908 Any
  4774 H4774      9.6176    11.4021     0.3822 Any
  4775 H4775      9.1661    12.0655    -0.8852 Any
  4776 O4776     -6.5866    -5.5657     2.9493 Any
  4777 H4777     -6.5772    -5.6363     3.8947 Any
  4778 H4778     -5.7425    -5.1941     2.7295 Any
  4779 O4779     -0.1608   -12.8555    11.0240 Any
  4780 H4780     -0.7789   -12.1580    11.1981 Any
  4781 H4781      0.3760   -12.8988    11.8042 Any
  4782 O4782    -18.5523   -18.9175   -16.0049 Any
  4783 H4783    -17.9962   -19.2114   -15.2955 Any
  4784 H4784    -18.2326   -19.3822   -16.7669 Any
  4785 O4785      6.7211    11.3043     9.9046 Any
  4786 H4786      7.5912    11.2558     9.5312 Any
  4787 H4787      6.1737    11.6127     9.1945 Any
  4788 O4788    -11.9141    -7.8746    18.0538 Any
  4789 H4789    -12.3994    -8.5897    18.4437 Any
  4790 H4790    -12.4121    -7.6415    17.2815 Any
  4791 O4791     -8.0900    11.5687     3.9917 Any
  4792 H4792     -8.6930    10.8970     4.2818 Any
  4793 H4793     -7.4993    11.1200     3.4013 Any
  4794 O4794     -3.2771    15.7465     6.8348 Any
  4795 H4795     -2.4960    15.4990     6.3578 Any
  4796 H4796     -3.0030    16.4705     7.3821 Any
  4797 O4797     -1.9790    13.1287    -3.8158 Any
  4798 H4798     -2.3299    12.3292    -3.4463 Any
  4799 H4799     -2.6690    13.4542    -4.3787 Any
  4800 O4800      7.0599    14.2767    12.4674 Any
  4801 H4801      6.3394    14.8918    12.5066 Any
  4802 H4802      7.5202    14.4993    11.6689 Any
  4803 O4803      9.2668     6.4908     2.1739 Any
  4804 H4804      9.1315     6.1705     1.2918 Any
  4805 H4805      9.4490     7.4150     2.0667 Any
  4806 O4806     19.4860    -6.3884   -12.6570 Any
  4807 H4807     19.1934    -7.1257   -13.1763 Any
  4808 H4808     19.5179    -6.7197   -11.7693 Any
  4809 O4809      9.2268    19.3659    17.4173 Any
  4810 H4810      9.3964    18.7420    16.7238 Any
  4811 H4811      8.2814    19.4050    17.4770 Any
  4812 O4812    -18.8218     7.5622     8.2165 Any
  4813 H4813    -18.8636     7.4943     9.1612 Any
  4814 H4814    -19.1950     8.4117     8.0217 Any
  4815 O4815    -16.7278     3.5926   -13.8650 Any
  4816 H4816    -16.6307     2.7698   -13.4039 Any
  4817 H4817    -15.8748     4.0019   -13.8045 Any
  4818 O4818    -19.0021    -1.3161     5.7343 Any
  4819 H4819    -19.3360    -0.6206     6.2854 Any
  4820 H4820    -18.6626    -0.8716     4.9688 Any
  4821 O4821    -16.6269   -17.0047   -14.9473 Any
  4822 H4822    -17.5475   -17.2227   -15.0097 Any
  4823 H4823    -16.1782   -17.8338   -15.0478 Any
  4824 O4824    -14.0486    -4.7072     4.3642 Any
  4825 H4825    -14.5515    -3.9190     4.2065 Any
  4826 H4826    -14.5936    -5.2264     4.9406 Any
  4827 O4827      4.3812   -17.2933     9.2678 Any
  4828 H4828      3.5037   -17.2379     8.9133 Any
  4829 H4829      4.5439   -18.2230     9.3577 Any
  4830 O4830      8.2701   -15.1443     0.7387 Any
  4831 H4831      8.2964   -15.6143    -0.0843 Any
  4832 H4832      7.8085   -15.7243     1.3299 Any
  4833 O4833     18.0013     8.0100     7.3561 Any
  4834 H4834     18.7710     8.5557     7.4496 Any
  4835 H4835     17.5285     8.3876     6.6262 Any
  4836 O4836     -4.6618     1.9445    -8.5234 Any
  4837 H4837     -4.6009     1.7301    -9.4449 Any
  4838 H4838     -3.8410     2.3752    -8.3240 Any
  4839 O4839      5.4591    -6.5658   -11.4101 Any
  4840 H4840      5.5650    -6.4772   -12.3480 Any
  4841 H4841      4.5343    -6.7360   -11.2895 Any
  4842 O4842     -3.8400     4.4249    13.6912 Any
  4843 H4843     -3.2773     3.9051    13.1326 Any
  4844 H4844     -3.4134     4.4118    14.5378 Any
  4845 O4845     18.7991    -5.6485   -17.5036 Any
  4846 H4846     19.3597    -6.3923   -17.3261 Any
  4847 H4847     17.9181    -5.9904   -17.4276 Any
  4848 O4848    -10.9731   -11.3432   -15.5286 Any
  4849 H4849    -10.4695   -10.6221   -15.8828 Any
  4850 H4850    -11.3582   -10.9976   -14.7342 Any
  4851 O4851     -9.9347    -7.0058    -4.6228 Any
  4852 H4852    -10.1734    -6.3252    -4.0074 Any
  4853 H4853     -9.8369    -7.7845    -4.0910 Any
  4854 O4854     -7.2880   -15.6968   -12.4508 Any
  4855 H4855     -6.5357   -16.0951   -12.0332 Any
  4856 H4856     -7.5424   -14.9958   -11.8653 Any
  4857 O4857     19.8360     4.3343   -11.0601 Any
  4858 H4858     19.4206     4.3871   -11.9107 Any
  4859 H4859     19.5377     3.5096   -10.6999 Any
  4860 O4860    -17.5417   -18.9722     0.7832 Any
  4861 H4861    -16.6689   -18.9448     0.4139 Any
  4862 H4862    -17.8100   -18.0640     0.8287 Any
  4863 O4863    -19.5634     1.0773   -13.9328 Any
  4864 H4864    -19.5431     1.5221   -13.0957 Any
  4865 H4865    -18.7011     1.2206   -14.2999 Any
  4866 O4866    -15.4257    18.3242   -10.6013 Any
  4867 H4867    -15.1355    19.1702   -10.2868 Any
  4868 H4868    -14.6335    17.8948   -10.8963 Any
  4869 O4869     14.8769   -12.9900    10.1475 Any
  4870 H4870     15.5485   -13.5886    10.4468 Any
  4871 H4871     14.0604   -13.4309    10.3422 Any
  4872 O4872     -5.3276     9.6786    -6.3806 Any
  4873 H4873     -5.9848     9.0377    -6.6175 Any
  4874 H4874     -4.8313     9.2657    -5.6862 Any
  4875 O4875     12.5691   -11.2386     4.5827 Any
  4876 H4876     12.5731   -11.0231     5.5059 Any
  4877 H4877     13.3752   -10.8685     4.2479 Any
  4878 O4878      0.0733     9.0524     4.9659 Any
  4879 H4879     -0.8454     8.9775     5.1877 Any
  4880 H4880      0.1540     9.9103     4.5704 Any
  4881 O4881      5.3481     6.8884     8.7850 Any
  4882 H4882      4.5964     6.8376     8.2094 Any
  4883 H4883      5.4384     6.0127     9.1370 Any
  4884 O4884     10.4518    -3.4181     0.6583 Any
  4885 H4885     11.3778    -3.6212     0.6491 Any
  4886 H4886     10.3814    -2.6505     1.2103 Any
  4887 O4887    -16.2656   -11.8239   -18.2227 Any
  4888 H4888    -16.2055   -12.5756   -17.6480 Any
  4889 H4889    -15.4314   -11.8006   -18.6727 Any
  4890 O4890     10.4695     3.3614   -14.9531 Any
  4891 H4891     10.1679     3.0448   -15.7944 Any
  4892 H4892     11.2508     2.8552   -14.7739 Any
  4893 O4893    -17.8544   -19.6822     3.3967 Any
  4894 H4894    -17.7499   -19.3927     2.4999 Any
  4895 H4895    -17.8070   -18.8871     3.9110 Any
  4896 O4896     16.7159    -5.8124    -9.9373 Any
  4897 H4897     17.1670    -5.3798    -9.2244 Any
  4898 H4898     17.3039    -6.5061   -10.2055 Any
  4899 O4899      7.0213    -2.0542     3.5352 Any
  4900 H4900      6.5198    -1.5469     4.1597 Any
  4901 H4901      6.5519    -1.9571     2.7172 Any
  4902 O4902    -19.3123    -2.0713   -17.9492 Any
  4903 H4903    -19.5791    -1.2472   -17.5637 Any
  4904 H4904    -19.8621    -2.1650   -18.7159 Any
  4905 O4905      0.7982    -0.6952    -5.5135 Any
  4906 H4906      0.2322    -1.2961    -5.9797 Any
  4907 H4907      0.8420    -1.0436    -4.6328 Any
  4908 O4908      7.5986     2.6774   -14.9300 Any
  4909 H4909      6.7880     3.0308   -14.5883 Any
  4910 H4910      8.2377     3.3623   -14.7840 Any
  4911 O4911      9.7389   -12.2362    -7.0847 Any
  4912 H4912      9.4093   -12.6178    -6.2818 Any
  4913 H4913     10.6822   -12.2790    -6.9994 Any
  4914 O4914     -8.3892    12.8135   -15.9649 Any
  4915 H4915     -9.1103    12.8203   -16.5804 Any
  4916 H4916     -7.7109    12.3120   -16.3977 Any
  4917 O4917     19.6953     9.5937    -8.5235 Any
  4918 H4918     20.3027    10.1257    -9.0205 Any
  4919 H4919     19.2666    10.2044    -7.9386 Any
  4920 O4920     -3.2142   -17.6487    -0.2817 Any
  4921 H4921     -2.2816   -17.7476    -0.1427 Any
  4922 H4922     -3.6132   -18.2120     0.3682 Any
  4923 O4923      8.8585   -19.4319    13.3085 Any
  4924 H4924      8.6105   -18.5306    13.1503 Any
  4925 H4925      9.4999   -19.3840    14.0051 Any
  4926 O4926     17.4310    11.6023     1.0856 Any
  4927 H4927     17.6296    12.1001     0.3035 Any
  4928 H4928     18.1308    10.9656     1.1471 Any
  4929 O4929    -17.5302     4.7084   -10.5728 Any
  4930 H4930    -18.4721     4.6299   -10.6469 Any
  4931 H4931    -17.3829     4.9742    -9.6747 Any
  4932 O4932     -4.8317    17.9253   -15.9816 Any
  4933 H4933     -4.0666    17.7688   -16.5192 Any
  4934 H4934     -5.5121    17.3949   -16.3749 Any
  4935 O4935     -9.6110    -2.1864    13.9010 Any
  4936 H4936     -9.1772    -2.4143    14.7127 Any
  4937 H4937     -9.4603    -2.9304    13.3330 Any
  4938 O4938      1.0059   -18.7461    13.2870 Any
  4939 H4939      0.3413   -19.3910    13.0841 Any
  4940 H4940      1.1244   -18.8130    14.2253 Any
  4941 O4941     17.9962    14.3024    -5.0528 Any
  4942 H4942     17.8487    14.0739    -5.9610 Any
  4943 H4943     17.5466    15.1293    -4.9389 Any
  4944 O4944     -6.7287    -9.7326    11.3515 Any
  4945 H4945     -6.9014    -9.1429    12.0735 Any
  4946 H4946     -6.2670   -10.4617    11.7442 Any
  4947 O4947     17.1046    -8.6082   -14.1002 Any
  4948 H4948     16.2655    -8.7564   -13.6845 Any
  4949 H4949     16.8929    -8.1795   -14.9189 Any
  4950 O4950    -10.0324     7.5390    13.8703 Any
  4951 H4951     -9.6595     8.4103    13.8959 Any
  4952 H4952    -10.8564     7.6456    13.4137 Any
  4953 O4953     11.4401    -1.5281    -5.3817 Any
  4954 H4954     12.0583    -2.1211    -5.7879 Any
  4955 H4955     10.6582    -1.5977    -5.9135 Any
  4956 O4956    -18.6238     4.0898    -5.4811 Any
  4957 H4957    -18.3920     3.4073    -4.8652 Any
  4958 H4958    -19.3282     3.7178    -5.9953 Any
  4959 O4959     19.9319    11.8517     9.8465 Any
  4960 H4960     20.5314    11.7080    10.5668 Any
  4961 H4961     19.0945    11.5449    10.1684 Any
  4962 O4962     -6.0630     6.5165    -3.8079 Any
  4963 H4963     -6.6711     6.7328    -3.1134 Any
  4964 H4964     -6.5123     5.8588    -4.3221 Any
  4965 O4965     -6.4862   -13.3986   -19.6282 Any
  4966 H4966     -6.2025   -12.7074   -19.0445 Any
  4967 H4967     -6.4090   -13.0246   -20.4960 Any
  4968 O4968     10.3339    17.6034    15.5471 Any
  4969 H4969     11.1062    17.1023    15.3201 Any
  4970 H4970      9.6118    17.0055    15.4057 Any
  4971 O4971    -15.8978    -6.3899   -15.7529 Any
  4972 H4972    -16.6399    -5.8933   -15.4342 Any
  4973 H4973    -16.2110    -7.2836   -15.7993 Any
  4974 O4974    -11.2642   -12.3517    -8.3561 Any
  4975 H4975    -10.9528   -12.6765    -9.1906 Any
  4976 H4976    -11.4471   -11.4343    -8.5105 Any
  4977 O4977     -3.4587   -19.4223     2.0695 Any
  4978 H4978     -3.8263   -20.1166     1.5388 Any
  4979 H4979     -3.2357   -19.8417     2.8900 Any
  4980 O4980      4.7176    13.7259    -7.1478 Any
  4981 H4981      4.6938    13.0867    -7.8476 Any
  4982 H4982      5.6355    13.7982    -6.9219 Any
  4983 O4983    -12.2700     7.6552   -15.2426 Any
  4984 H4984    -12.6677     7.7250   -16.1004 Any
  4985 H4985    -12.0609     8.5485   -15.0034 Any
  4986 O4986      3.7308    -1.0295    -0.5704 Any
  4987 H4987      3.2293    -0.2916    -0.8909 Any
  4988 H4988      3.9432    -1.5292    -1.3477 Any
  4989 O4989      4.9449    -2.2256    -6.1208 Any
  4990 H4990      4.5627    -2.3297    -5.2594 Any
  4991 H4991      4.4126    -1.5619    -6.5392 Any
  4992 O4992    -16.2035    14.7936    -9.2361 Any
  4993 H4993    -15.6907    15.5910    -9.2276 Any
  4994 H4994    -15.6879    14.1731    -8.7381 Any
  4995 O4995     -4.7905     6.1745    -9.1841 Any
  4996 H4996     -4.5507     6.1030    -8.2696 Any
  4997 H4997     -5.2924     6.9771    -9.2370 Any
  4998 O4998     -1.1403   -14.9096    18.0030 Any
  4999 H4999     -0.7184   -15.1304    18.8228 Any
  5000 H5000     -1.1135   -15.7112    17.4975 Any
  5001 O5001     -7.6821   -10.6483     2.6387 Any
  5002 H5002     -8.4056   -10.0461     2.7523 Any
  5003 H5003     -6.9360   -10.0927     2.4556 Any
  5004 O5004     -2.5217   -18.0316    18.2798 Any
  5005 H5005     -3.1786   -17.3519    18.2062 Any
  5006 H5006     -2.9430   -18.7171    18.7813 Any
  5007 O5007     18.2490   -17.6071     4.6158 Any
  5008 H5008     17.7027   -16.9296     4.9919 Any
  5009 H5009     17.8228   -18.4187     4.8576 Any
  5010 O5010    -15.1026   -12.3110    -8.7758 Any
  5011 H5011    -15.7027   -11.5816    -8.8575 Any
  5012 H5012    -15.1028   -12.5175    -7.8504 Any
  5013 O5013    -11.3978    -4.2811   -19.1838 Any
  5014 H5014    -12.0283    -3.7984   -19.7017 Any
  5015 H5015    -10.6032    -3.7663   -19.2346 Any
  5016 O5016    -18.9412     3.7466   -18.6337 Any
  5017 H5017    -18.3136     3.3039   -18.0778 Any
  5018 H5018    -19.1838     4.5236   -18.1477 Any
  5019 O5019    -10.4828   -12.3197   -11.0943 Any
  5020 H5020    -11.0893   -12.7579   -11.6765 Any
  5021 H5021    -10.1222   -11.6131   -11.6134 Any
  5022 O5022    -13.3460    -3.3982   -15.1259 Any
  5023 H5023    -12.5248    -3.8443   -15.2857 Any
  5024 H5024    -13.8519    -3.5399   -15.9151 Any
  5025 O5025      6.7789   -14.6596    11.4610 Any
  5026 H5026      6.6527   -15.5992    11.4527 Any
  5027 H5027      5.9282   -14.3028    11.2419 Any
  5028 O5028      5.1020   -11.2795    -5.1190 Any
  5029 H5029      5.7484   -11.8709    -5.4814 Any
  5030 H5030      4.4168   -11.2451    -5.7734 Any
  5031 O5031      7.6878    16.4432     2.2102 Any
  5032 H5032      7.8081    15.5168     2.3720 Any
  5033 H5033      6.7915    16.6156     2.4668 Any
  5034 O5034      7.7409    11.1195    16.2982 Any
  5035 H5035      8.2757    10.5111    15.8056 Any
  5036 H5036      7.2568    10.5747    16.9046 Any
  5037 O5037     17.6558   -17.9540   -12.1251 Any
  5038 H5038     17.0952   -18.3579   -12.7743 Any
  5039 H5039     17.2369   -18.1450   -11.2963 Any
  5040 O5040    -14.4775   -17.0247     0.4983 Any
  5041 H5041    -13.8156   -16.8649    -0.1614 Any
  5042 H5042    -15.2893   -16.7488     0.0935 Any
  5043 O5043     13.5037   -18.2398     4.6204 Any
  5044 H5044     13.0589   -17.5037     5.0194 Any
  5045 H5045     12.8054   -18.8109     4.3287 Any
  5046 O5046     16.5845    -4.2344    -1.8739 Any
  5047 H5047     16.4295    -3.6781    -2.6258 Any
  5048 H5048     17.0798    -3.6923    -1.2742 Any
  5049 O5049      9.4599    -4.5394    -6.6456 Any
  5050 H5050      9.4251    -5.3189    -7.1842 Any
  5051 H5051      8.5571    -4.2595    -6.5724 Any
  5052 O5052     -1.7079     6.4702     2.9606 Any
  5053 H5053     -1.9931     5.8958     2.2623 Any
  5054 H5054     -0.7658     6.3661     2.9852 Any
  5055 O5055    -13.8620   -12.1624    17.2941 Any
  5056 H5056    -14.4369   -12.8548    16.9959 Any
  5057 H5057    -13.0645   -12.6075    17.5487 Any
  5058 O5058      3.9235    11.7920   -15.9279 Any
  5059 H5059      3.7255    12.5738   -16.4263 Any
  5060 H5060      3.0985    11.5479   -15.5295 Any
  5061 O5061      8.9319    12.5207    -2.7783 Any
  5062 H5062      9.5959    12.5098    -3.4549 Any
  5063 H5063      8.5790    11.6408    -2.7762 Any
  5064 O5064      5.0951    -1.4494   -18.3953 Any
  5065 H5065      4.4243    -1.2400   -19.0318 Any
  5066 H5066      4.9533    -0.8339   -17.6881 Any
  5067 O5067     14.6845   -13.7152    13.6858 Any
  5068 H5068     14.2144   -14.2139    13.0306 Any
  5069 H5069     15.0969   -14.3702    14.2334 Any
  5070 O5070      4.5236     8.6838     2.5401 Any
  5071 H5071      3.8622     8.4834     3.1891 Any
  5072 H5072      4.0425     8.7681     1.7275 Any
  5073 O5073     12.2864     4.0414     6.4835 Any
  5074 H5074     11.8604     4.6478     5.8922 Any
  5075 H5075     12.4382     4.5446     7.2726 Any
  5076 O5076    -16.0711    -7.7635    18.6445 Any
  5077 H5077    -15.6043    -7.0167    18.2934 Any
  5078 H5078    -16.9193    -7.7348    18.2218 Any
  5079 O5079      6.1027    -7.1793     3.9013 Any
  5080 H5080      6.4402    -6.3416     3.6126 Any
  5081 H5081      5.9360    -7.0630     4.8273 Any
  5082 O5082      9.3457   -10.5524   -11.7499 Any
  5083 H5083      8.7769   -11.3060   -11.6634 Any
  5084 H5084     10.1763   -10.9117   -12.0325 Any
  5085 O5085     -3.1107    19.7525    19.7894 Any
  5086 H5086     -2.7902    18.9740    19.3533 Any
  5087 H5087     -3.9862    19.5239    20.0725 Any
  5088 O5088    -15.7907    19.3576     7.8982 Any
  5089 H5089    -16.0926    19.1883     8.7808 Any
  5090 H5090    -16.4284    18.9301     7.3419 Any
  5091 O5091      7.4321    -0.4885     9.7146 Any
  5092 H5092      6.8654     0.0877     9.2187 Any
  5093 H5093      7.0404    -1.3468     9.6206 Any
  5094 O5094     -4.4857    -0.9931    -0.0627 Any
  5095 H5095     -4.3025    -0.8571    -0.9830 Any
  5096 H5096     -5.1674    -1.6519    -0.0501 Any
  5097 O5097      7.0580    -5.1834    -4.1787 Any
  5098 H5098      7.3225    -6.0938    -4.1704 Any
  5099 H5099      7.0700    -4.9232    -3.2670 Any
  5100 O5100      9.5848   -14.9848     4.5896 Any
  5101 H5101      8.9042   -15.4926     5.0113 Any
  5102 H5102      9.6040   -14.1670     5.0690 Any
  5103 O5103     -8.6561    13.1341    13.9873 Any
  5104 H5104     -8.6013    12.1889    14.0367 Any
  5105 H5105     -8.1159    13.3657    13.2434 Any
  5106 O5106     -1.4883    13.1343   -18.1349 Any
  5107 H5107     -0.5722    12.9095   -18.2311 Any
  5108 H5108     -1.6654    13.0226   -17.2102 Any
  5109 O5109     -4.0793    -4.2831     1.8454 Any
  5110 H5110     -3.8391    -4.0354     2.7285 Any
  5111 H5111     -3.3134    -4.0812     1.3244 Any
  5112 O5112     -5.4696    -2.6176    -6.7587 Any
  5113 H5113     -4.7629    -3.1945    -6.5006 Any
  5114 H5114     -5.2835    -1.7999    -6.3165 Any
  5115 O5115     12.0838    10.2203    -0.3884 Any
  5116 H5116     11.7700     9.3274    -0.4440 Any
  5117 H5117     13.0086    10.1611    -0.5891 Any
  5118 O5118     -8.3156   -16.0730    -3.3732 Any
  5119 H5119     -8.8052   -15.2746    -3.5205 Any
  5120 H5120     -8.9598   -16.7647    -3.4461 Any
  5121 O5121    -15.2475    18.1381   -18.7024 Any
  5122 H5122    -14.6772    18.5258   -19.3530 Any
  5123 H5123    -14.6671    17.6368   -18.1449 Any
  5124 O5124     15.7200     5.0766     0.6601 Any
  5125 H5125     14.9136     4.5944     0.7867 Any
  5126 H5126     15.9000     5.4663     1.5054 Any
  5127 O5127      8.0013    13.4189   -13.7366 Any
  5128 H5128      8.5006    13.1268   -14.4877 Any
  5129 H5129      8.3128    14.2988   -13.5707 Any
  5130 O5130      9.5216    -0.2094    12.3691 Any
  5131 H5131      8.9865     0.4544    11.9545 Any
  5132 H5132      9.9045    -0.6916    11.6482 Any
  5133 O5133    -13.0289   -12.7658   -16.3062 Any
  5134 H5134    -13.1887   -12.6629   -17.2351 Any
  5135 H5135    -12.2325   -12.2770   -16.1457 Any
  5136 O5136     18.6393   -19.4914     9.4288 Any
  5137 H5137     19.0128   -18.7648     9.9099 Any
  5138 H5138     19.2753   -20.1888     9.5184 Any
  5139 O5139    -11.7680   -16.2267     2.3574 Any
  5140 H5140    -10.9439   -16.5965     2.6454 Any
  5141 H5141    -11.6592   -16.0999     1.4241 Any
  5142 O5142     14.3834    -1.3426   -12.6666 Any
  5143 H5143     15.1497    -1.4123   -13.2206 Any
  5144 H5144     14.1708    -2.2383   -12.4398 Any
  5145 O5145     11.8452    -1.3382   -19.6524 Any
  5146 H5146     11.3263    -2.1227   -19.5333 Any
  5147 H5147     11.2078    -0.6454   -19.7651 Any
  5148 O5148     13.5070     1.4327   -19.6311 Any
  5149 H5149     13.5130     0.4850   -19.6569 Any
  5150 H5150     14.4176     1.6742   -19.5243 Any
  5151 O5151     11.9524     2.6557   -17.4759 Any
  5152 H5152     12.4435     2.3344   -16.7313 Any
  5153 H5153     12.4157     2.3177   -18.2309 Any
  5154 O5154     -2.1730    -7.0730   -18.2959 Any
  5155 H5155     -1.2301    -7.1014   -18.2014 Any
  5156 H5156     -2.4788    -7.8660   -17.8756 Any
  5157 O5157     -6.1830   -19.9708    -7.8072 Any
  5158 H5158     -5.3526   -20.1516    -7.3870 Any
  5159 H5159     -5.9529   -19.7224    -8.6928 Any
  5160 O5160     16.6780     9.1837     5.2251 Any
  5161 H5161     15.8144     8.9306     5.5235 Any
  5162 H5162     16.5201     9.8789     4.6001 Any
  5163 O5163     18.0645    13.7185    -0.6136 Any
  5164 H5164     18.3899    13.2142    -1.3476 Any
  5165 H5165     17.6215    14.4573    -1.0096 Any
  5166 O5166    -17.6188     9.9794     4.8400 Any
  5167 H5167    -18.2846    10.5127     5.2538 Any
  5168 H5168    -16.8155    10.4699     4.9539 Any
  5169 O5169     18.5209    16.4818    15.6189 Any
  5170 H5170     19.3908    16.4462    15.2434 Any
  5171 H5171     18.2405    17.3778    15.4866 Any
  5172 O5172     -7.9462    11.3021    -2.9193 Any
  5173 H5173     -7.4360    11.6105    -3.6565 Any
  5174 H5174     -7.4014    11.4755    -2.1630 Any
  5175 O5175     14.8121    16.2480    14.5670 Any
  5176 H5176     13.9617    16.2898    14.1499 Any
  5177 H5177     15.4143    16.5808    13.9147 Any
  5178 O5178      6.3971     4.7492   -18.6395 Any
  5179 H5179      6.5837     5.2356   -17.8473 Any
  5180 H5180      7.2004     4.7933   -19.1412 Any
  5181 O5181     15.4254   -13.0824   -13.0313 Any
  5182 H5182     15.6107   -12.9313   -12.1139 Any
  5183 H5183     15.2861   -14.0180   -13.0955 Any
  5184 O5184      0.7701    -5.3812   -15.5733 Any
  5185 H5185      0.3012    -4.8208   -16.1774 Any
  5186 H5186      0.2949    -6.2014   -15.5911 Any
  5187 O5187     -6.9877    13.9905     8.4252 Any
  5188 H5188     -7.8351    13.9799     8.0001 Any
  5189 H5189     -6.6626    14.8703     8.2871 Any
  5190 O5190      0.2496    16.8748    19.8955 Any
  5191 H5191     -0.3809    17.4972    19.5579 Any
  5192 H5192      0.7729    17.3741    20.5085 Any
  5193 O5193     15.1406    -4.5988    18.2227 Any
  5194 H5194     15.2698    -5.3871    18.7334 Any
  5195 H5195     15.0835    -3.9047    18.8660 Any
  5196 O5196     15.6854     5.6636    -4.4652 Any
  5197 H5197     15.8096     4.8032    -4.0868 Any
  5198 H5198     14.9183     6.0082    -4.0274 Any
  5199 O5199    -13.4957    14.0985     9.6498 Any
  5200 H5200    -14.3642    14.4544     9.7834 Any
  5201 H5201    -13.4970    13.7978     8.7506 Any
  5202 O5202     19.7211    -7.6810     2.2402 Any
  5203 H5203     20.1486    -8.5226     2.1514 Any
  5204 H5204     19.1111    -7.7979     2.9565 Any
  5205 O5205     15.5555     2.7842    10.0721 Any
  5206 H5206     15.8759     2.2722     9.3414 Any
  5207 H5207     14.9003     2.2336    10.4801 Any
  5208 O5208    -18.4536    16.1278    14.7899 Any
  5209 H5209    -18.0579    16.3308    13.9526 Any
  5210 H5210    -18.3134    15.1966    14.9003 Any
  5211 O5211     -2.5177    -3.3272    17.4028 Any
  5212 H5212     -2.8329    -3.4590    18.2872 Any
  5213 H5213     -3.0576    -2.6279    17.0589 Any
  5214 O5214     -8.1195     5.1069    18.3094 Any
  5215 H5215     -7.6307     4.8685    19.0860 Any
  5216 H5216     -8.5183     4.2967    18.0204 Any
  5217 O5217    -19.6704     1.5080    -2.3948 Any
  5218 H5218    -18.7586     1.5831    -2.6434 Any
  5219 H5219    -20.0852     2.2704    -2.7763 Any
  5220 O5220     -2.3831   -16.5945    13.7573 Any
  5221 H5221     -1.6028   -16.2721    13.3258 Any
  5222 H5222     -2.0850   -16.8711    14.6137 Any
  5223 O5223      4.6448   -14.4878     9.6242 Any
  5224 H5224      3.8012   -14.1467     9.8903 Any
  5225 H5225      4.4979   -15.4159     9.4985 Any
  5226 O5226     14.0031   -18.7801   -14.1428 Any
  5227 H5227     14.3363   -19.5671   -14.5532 Any
  5228 H5228     13.3268   -19.0865   -13.5532 Any
  5229 O5229      0.6296    -1.4525    -2.7266 Any
  5230 H5230     -0.2359    -1.7941    -2.5451 Any
  5231 H5231      0.6109    -0.5655    -2.3923 Any
  5232 O5232     16.4234    -9.9315    12.3661 Any
  5233 H5233     16.9240    -9.5432    13.0716 Any
  5234 H5234     16.5608   -10.8647    12.4618 Any
  5235 O5235    -10.2594     9.8406     4.6379 Any
  5236 H5236    -10.4644     9.0388     4.1753 Any
  5237 H5237    -11.0861    10.3013     4.6944 Any
  5238 O5238    -18.4697   -14.5307   -11.6745 Any
  5239 H5239    -18.0114   -14.0885   -12.3769 Any
  5240 H5240    -19.1768   -14.9928   -12.1050 Any
  5241 O5241     12.6992    14.6081     4.3800 Any
  5242 H5242     12.7746    13.7932     3.9013 Any
  5243 H5243     12.7093    15.2796     3.7108 Any
  5244 O5244    -18.5611   -14.2122    -3.8714 Any
  5245 H5245    -18.8999   -13.3718    -4.1503 Any
  5246 H5246    -18.4719   -14.7112    -4.6727 Any
  5247 O5247    -16.0099    14.3943     1.0549 Any
  5248 H5248    -15.8066    14.7507     1.9096 Any
  5249 H5249    -16.9496    14.2688     1.0661 Any
  5250 O5250     -9.4907   -18.2765   -16.5585 Any
  5251 H5251    -10.2039   -17.8199   -16.9849 Any
  5252 H5252     -9.4469   -17.8940   -15.6921 Any
  5253 O5253     16.9037    -7.8647    -5.2788 Any
  5254 H5254     16.1323    -7.9120    -5.8280 Any
  5255 H5255     16.5668    -7.7000    -4.4080 Any
  5256 O5256     12.0013     9.8489   -15.4957 Any
  5257 H5257     12.3890    10.4381   -14.8621 Any
  5258 H5258     11.1733     9.5951   -15.1098 Any
  5259 O5259      0.7911    -1.7377    10.5323 Any
  5260 H5260      0.3878    -1.7236    11.3903 Any
  5261 H5261      0.0957    -2.0060     9.9463 Any
  5262 O5262      0.6535    10.7046     2.7162 Any
  5263 H5263      0.7991    11.1206     1.8768 Any
  5264 H5264      0.0438    10.0024     2.5318 Any
  5265 O5265      0.3860    -9.4236    -2.5515 Any
  5266 H5266      0.5376    -8.4913    -2.6336 Any
  5267 H5267     -0.3618    -9.4935    -1.9729 Any
  5268 O5268      8.3060    -5.1724   -19.3617 Any
  5269 H5269      8.0563    -5.1505   -18.4473 Any
  5270 H5270      9.1816    -4.8093   -19.3785 Any
  5271 O5271    -16.3927    -1.5970    -1.0442 Any
  5272 H5272    -15.8388    -1.8538    -1.7696 Any
  5273 H5273    -15.8787    -1.7908    -0.2714 Any
  5274 O5274    -11.8896     6.3128   -11.1058 Any
  5275 H5275    -11.2763     6.0108   -10.4488 Any
  5276 H5276    -11.4864     6.0821   -11.9323 Any
  5277 O5277     -5.3520   -13.3000     1.2885 Any
  5278 H5278     -4.7599   -13.5938     0.6088 Any
  5279 H5279     -6.0457   -12.8516     0.8231 Any
  5280 O5280     12.4157     8.4682    17.6171 Any
  5281 H5281     12.1103     9.3590    17.7271 Any
  5282 H5282     12.6680     8.4135    16.7048 Any
  5283 O5283      2.7706    -6.1286    16.4933 Any
  5284 H5284      2.2946    -6.8428    16.0905 Any
  5285 H5285      2.1599    -5.7557    17.1153 Any
  5286 O5286      4.9882     9.2254     9.9390 Any
  5287 H5287      5.7295     9.8130     9.8748 Any
  5288 H5288      5.2591     8.4476     9.4693 Any
  5289 O5289     -6.3865   -13.6751    -1.5824 Any
  5290 H5290     -6.8650   -14.4736    -1.4029 Any
  5291 H5291     -7.0220   -13.1033    -1.9925 Any
  5292 O5292      4.9039     6.4973   -11.3407 Any
  5293 H5293      5.0188     5.7900   -10.7199 Any
  5294 H5294      5.4375     7.2029   -10.9997 Any
  5295 O5295    -16.3541    14.1996    12.5336 Any
  5296 H5296    -16.1063    14.9330    13.0810 Any
  5297 H5297    -15.5757    13.6600    12.4913 Any
  5298 O5298     -3.8100     1.9777    -1.5800 Any
  5299 H5299     -4.2824     2.4287    -0.8928 Any
  5300 H5300     -3.8734     1.0600    -1.3504 Any
  5301 O5301    -11.3832    -6.8399    12.9010 Any
  5302 H5302    -11.1936    -5.9537    12.6223 Any
  5303 H5303    -11.7333    -7.2632    12.1282 Any
  5304 O5304    -15.4266    -9.8980    -2.7710 Any
  5305 H5305    -14.8965   -10.0632    -3.5396 Any
  5306 H5306    -15.2861   -10.6547    -2.2173 Any
  5307 O5307     18.4915   -15.7443    -3.8691 Any
  5308 H5308     17.6257   -16.1098    -3.7437 Any
  5309 H5309     18.6889   -15.3118    -3.0488 Any
  5310 O5310    -11.7898    -8.7775    -5.9407 Any
  5311 H5311    -11.0856    -9.4080    -5.8658 Any
  5312 H5312    -11.3564    -7.9343    -5.9354 Any
  5313 O5313    -17.4594     8.3861    11.3059 Any
  5314 H5314    -18.3005     7.9647    11.1882 Any
  5315 H5315    -17.3244     8.3909    12.2444 Any
  5316 O5316     -2.2256    -4.3006    -9.5082 Any
  5317 H5317     -2.9376    -3.8672    -9.9600 Any
  5318 H5318     -1.4409    -3.9123    -9.8719 Any
  5319 O5319     -9.2702    11.4014    10.1613 Any
  5320 H5320     -8.8054    11.7109     9.3952 Any
  5321 H5321     -8.5887    11.1049    10.7501 Any
  5322 O5322     -9.1563    -3.9658     3.2618 Any
  5323 H5323     -8.7732    -3.3157     2.6879 Any
  5324 H5324     -9.0063    -4.7915     2.8207 Any
  5325 O5325      4.0967   -15.4036     1.8247 Any
  5326 H5326      3.5810   -15.3111     1.0346 Any
  5327 H5327      4.2753   -14.5137     2.0985 Any
  5328 O5328     -5.8476   -16.0190    -4.6082 Any
  5329 H5329     -6.6786   -16.0817    -4.1561 Any
  5330 H5330     -5.1981   -16.1832    -3.9372 Any
  5331 O5331     13.3022   -14.2319     4.4863 Any
  5332 H5332     13.6917   -14.2872     3.6236 Any
  5333 H5333     12.9680   -13.3463     4.5407 Any
  5334 O5334    -15.9457    12.0226     5.8056 Any
  5335 H5335    -16.0729    12.4144     6.6595 Any
  5336 H5336    -15.0049    11.9495     5.7145 Any
  5337 O5337    -11.8468   -18.4881     6.6911 Any
  5338 H5338    -12.7220   -18.5257     7.0536 Any
  5339 H5339    -11.3122   -18.9702     7.3080 Any
  5340 O5340     16.9918     5.8121    17.9235 Any
  5341 H5341     16.1140     6.1619    18.0016 Any
  5342 H5342     17.4037     6.0141    18.7532 Any
  5343 O5343     11.0991   -14.7221    -4.4223 Any
  5344 H5344     11.7748   -14.0732    -4.2768 Any
  5345 H5345     10.2946   -14.2898    -4.1677 Any
  5346 O5346    -14.5820   -10.7545     9.8498 Any
  5347 H5347    -14.6169   -10.1219     9.1444 Any
  5348 H5348    -14.4664   -10.2325    10.6328 Any
  5349 O5349    -12.7331    11.0720   -11.6654 Any
  5350 H5350    -12.6707    11.4574   -12.5294 Any
  5351 H5351    -13.0828    10.2037   -11.8163 Any
  5352 O5352     -7.3337    -7.4484   -19.4167 Any
  5353 H5353     -7.6931    -7.8288   -20.2073 Any
  5354 H5354     -6.5393    -7.9400   -19.2552 Any
  5355 O5355     18.5214     3.1038   -19.7707 Any
  5356 H5356     18.4103     2.5012   -20.4942 Any
  5357 H5357     19.4042     2.9465   -19.4628 Any
  5358 O5358     11.6164    -7.3919   -19.0626 Any
  5359 H5359     11.0488    -8.1451   -18.9659 Any
  5360 H5360     12.0986    -7.5577   -19.8619 Any
  5361 O5361     -5.6456    19.8753     4.1641 Any
  5362 H5362     -5.9937    20.6966     3.8429 Any
  5363 H5363     -6.3959    19.4242     4.5280 Any
  5364 O5364     19.8263   -10.1433    16.2559 Any
  5365 H5365     18.9956   -10.0595    16.7052 Any
  5366 H5366     20.0777    -9.2523    16.0514 Any
  5367 O5367      9.1242    10.1202   -19.4669 Any
  5368 H5368      9.3943    10.0049   -20.3683 Any
  5369 H5369      8.2765     9.6988   -19.4161 Any
  5370 O5370     12.5668    -3.9632    11.5433 Any
  5371 H5371     13.1369    -3.2709    11.2357 Any
  5372 H5372     12.0751    -4.2257    10.7764 Any
  5373 O5373     12.9572    11.1413     6.8079 Any
  5374 H5374     12.8606    10.8531     7.7060 Any
  5375 H5375     12.6402    12.0349     6.8088 Any
  5376 O5376     18.6988     6.1260    12.8271 Any
  5377 H5377     17.8568     5.7841    12.5569 Any
  5378 H5378     18.5379     6.5109    13.6785 Any
  5379 O5379     11.1612    10.8403    13.4731 Any
  5380 H5380     11.7213    10.1674    13.1093 Any
  5381 H5381     11.4671    10.9494    14.3639 Any
  5382 O5382      1.6449    -1.4926   -16.8660 Any
  5383 H5383      0.8570    -1.2180   -17.3161 Any
  5384 H5384      2.3194    -0.9095   -17.1885 Any
  5385 O5385     18.0879     4.8178   -13.1078 Any
  5386 H5386     17.6415     5.6346   -12.9273 Any
  5387 H5387     17.7242     4.5245   -13.9327 Any
  5388 O5388    -13.7363     1.6652     4.9043 Any
  5389 H5389    -14.0384     1.9839     4.0641 Any
  5390 H5390    -13.0033     2.2256     5.1225 Any
  5391 O5391      2.1222    16.1936    10.9032 Any
  5392 H5392      1.6735    16.8096    11.4671 Any
  5393 H5393      2.7583    16.7183    10.4352 Any
  5394 O5394     -8.8076   -14.4278     6.3580 Any
  5395 H5395     -8.9138   -14.9373     7.1505 Any
  5396 H5396     -9.6374   -14.5121     5.9073 Any
  5397 O5397    -17.4561    11.7862   -12.3245 Any
  5398 H5398    -17.5873    12.1276   -13.1992 Any
  5399 H5399    -17.0200    10.9547   -12.4560 Any
  5400 O5400    -18.7022   -17.8588   -13.0625 Any
  5401 H5401    -19.3020   -17.1251   -13.0356 Any
  5402 H5402    -19.2607   -18.6206   -13.1437 Any
  5403 O5403    -11.8441    -3.2107     1.8235 Any
  5404 H5404    -11.7576    -3.1803     2.7672 Any
  5405 H5405    -11.9179    -4.1339     1.6204 Any
  5406 O5406     10.8221     7.3606    19.5739 Any
  5407 H5407     10.6578     7.8300    18.7667 Any
  5408 H5408     11.6315     7.7286    19.9032 Any
  5409 O5409    -14.6340     0.6964   -15.4234 Any
  5410 H5410    -14.3923     1.2906   -16.1215 Any
  5411 H5411    -13.8868     0.1200   -15.3314 Any
  5412 O5412    -13.7256    -4.5838    -7.4157 Any
  5413 H5413    -14.2731    -4.0735    -7.9978 Any
  5414 H5414    -12.9883    -4.8462    -7.9509 Any
  5415 O5415      8.1784    -7.7935    19.3655 Any
  5416 H5416      8.3649    -6.9251    19.6972 Any
  5417 H5417      8.1437    -8.3416    20.1384 Any
  5418 O5418     -3.5645     6.9745    -0.6167 Any
  5419 H5419     -2.9222     7.3897    -1.1770 Any
  5420 H5420     -3.0753     6.3174    -0.1393 Any
  5421 O5421    -14.5846    13.2995   -11.2570 Any
  5422 H5422    -15.4182    13.3609   -10.8094 Any
  5423 H5423    -14.1494    12.5617   -10.8505 Any
  5424 O5424    -19.3351   -16.1349    -9.4798 Any
  5425 H5425    -18.9837   -15.4796    -8.8916 Any
  5426 H5426    -19.2401   -15.7556   -10.3435 Any
  5427 O5427    -18.5738    -6.0817   -14.6105 Any
  5428 H5428    -19.0575    -6.2037   -13.8043 Any
  5429 H5429    -18.7892    -5.2007   -14.8869 Any
  5430 O5430      1.8531   -10.1067    -6.6273 Any
  5431 H5431      1.7182    -9.1704    -6.5645 Any
  5432 H5432      2.5393   -10.2059    -7.2740 Any
  5433 O5433     19.7826    -0.0168   -16.3275 Any
  5434 H5434     19.9417     0.3402   -15.4637 Any
  5435 H5435     19.1382     0.5637   -16.7105 Any
  5436 O5436     -5.8868    16.0411    17.2310 Any
  5437 H5437     -6.1656    16.8358    16.7955 Any
  5438 H5438     -4.9429    16.0387    17.1417 Any
  5439 O5439      6.7505    18.0064     6.7952 Any
  5440 H5440      7.4614    17.4184     6.5768 Any
  5441 H5441      5.9884    17.6233     6.3813 Any
  5442 O5442    -16.8025    -4.6658     1.2689 Any
  5443 H5443    -16.4349    -4.4438     0.4236 Any
  5444 H5444    -16.1314    -4.4211     1.8924 Any
  5445 O5445     11.0375   -19.4869    15.0794 Any
  5446 H5446     11.8218   -19.2443    15.5536 Any
  5447 H5447     10.7093   -20.2502    15.5360 Any
  5448 O5448    -11.0433    -4.4468   -16.4656 Any
  5449 H5449    -11.3902    -4.3445   -17.3420 Any
  5450 H5450    -10.1734    -4.8016   -16.5933 Any
  5451 O5451     -1.6680    -3.1951     5.8010 Any
  5452 H5452     -2.6063    -3.0663     5.8447 Any
  5453 H5453     -1.4770    -3.2450     4.8737 Any
  5454 O5454      2.4983    -3.8963    10.2357 Any
  5455 H5455      1.7741    -3.2870    10.2931 Any
  5456 H5456      3.1865    -3.4981    10.7523 Any
  5457 O5457    -14.6627    14.8452    18.5093 Any
  5458 H5458    -15.4891    14.5140    18.8353 Any
  5459 H5459    -14.9042    15.4708    17.8392 Any
  5460 O5460     -3.3642   -19.6870    -5.4828 Any
  5461 H5461     -3.9488   -19.8283    -4.7498 Any
  5462 H5462     -2.8160   -20.4603    -5.5031 Any
  5463 O5463     11.5249    11.7322   -13.3134 Any
  5464 H5464     10.9715    12.2755   -13.8588 Any
  5465 H5465     11.0409    11.6358   -12.5038 Any
  5466 O5466    -14.9530    -3.6746   -20.1998 Any
  5467 H5467    -14.8222    -2.7374   -20.2586 Any
  5468 H5468    -14.5236    -3.9251   -19.3925 Any
  5469 O5469     15.4746    -7.0837    19.7718 Any
  5470 H5470     16.3540    -7.2372    19.4525 Any
  5471 H5471     15.1464    -7.9459    19.9905 Any
  5472 O5472     -2.5265    14.8014   -19.8960 Any
  5473 H5473     -2.0920    14.5546   -20.7017 Any
  5474 H5474     -2.1564    14.2261   -19.2395 Any
  5475 O5475      8.9137    -5.2222   -16.3529 Any
  5476 H5476      9.8266    -5.0129   -16.5005 Any
  5477 H5477      8.8525    -5.3768   -15.4194 Any
  5478 O5478      5.1797     8.7967   -14.1474 Any
  5479 H5479      5.1373     9.1717   -13.2777 Any
  5480 H5480      4.2791     8.7783   -14.4433 Any
  5481 O5481     -0.5643    -7.7134   -14.9643 Any
  5482 H5482     -1.0667    -8.3331   -15.4767 Any
  5483 H5483     -1.1630    -7.4206   -14.2900 Any
  5484 O5484      3.2335   -12.1679    14.6880 Any
  5485 H5485      2.4924   -12.5594    14.2448 Any
  5486 H5486      3.6964   -11.6968    14.0078 Any
  5487 O5487     16.1501    16.6879    -4.7120 Any
  5488 H5488     16.1017    17.2697    -3.9649 Any
  5489 H5489     16.3665    17.2538    -5.4412 Any
  5490 O5490     12.3302    16.4166     1.9469 Any
  5491 H5491     11.4736    16.6033     1.5857 Any
  5492 H5492     12.9256    16.5258     1.2172 Any
  5493 O5493     -6.1565    -4.4775    -3.0435 Any
  5494 H5494     -6.8958    -3.9036    -3.1952 Any
  5495 H5495     -6.2400    -4.7393    -2.1361 Any
  5496 O5496     -9.0855     1.7797   -10.4378 Any
  5497 H5497     -8.1954     1.9071   -10.7386 Any
  5498 H5498     -9.4187     1.0711   -10.9723 Any
  5499 O5499     13.8836    16.8523    10.8040 Any
  5500 H5500     13.5256    15.9744    10.8010 Any
  5501 H5501     13.3812    17.3125    11.4634 Any
  5502 O5502      3.1000    -4.4204    18.9237 Any
  5503 H5503      3.3623    -3.6973    18.3694 Any
  5504 H5504      3.7025    -5.1191    18.7052 Any
  5505 O5505     10.9905    -0.9800    10.4045 Any
  5506 H5506     10.7639    -0.2413     9.8550 Any
  5507 H5507     11.9197    -0.8814    10.5653 Any
  5508 O5508      8.8926    19.3879    -1.2204 Any
  5509 H5509      9.6688    19.8239    -1.5466 Any
  5510 H5510      8.4258    19.1171    -2.0000 Any
  5511 O5511     17.0292    14.7820   -12.4551 Any
  5512 H5512     17.3148    14.7758   -13.3591 Any
  5513 H5513     16.1998    15.2412   -12.4702 Any
  5514 O5514     12.4131     9.9504     9.3425 Any
  5515 H5515     12.3328     9.0069     9.3907 Any
  5516 H5516     12.9753    10.1793    10.0709 Any
  5517 O5517      9.3538     4.7324    -5.8261 Any
  5518 H5518      9.0033     4.7142    -4.9454 Any
  5519 H5519      8.5954     4.8536    -6.3821 Any
  5520 O5520     -9.1210     2.9771     7.8946 Any
  5521 H5521     -8.6530     3.0349     7.0721 Any
  5522 H5522     -8.7181     3.6357     8.4449 Any
  5523 O5523     -5.5705    17.9950    -2.9241 Any
  5524 H5524     -4.7780    17.7284    -2.4772 Any
  5525 H5525     -5.4845    18.9341    -3.0223 Any
  5526 O5526      1.2986    -2.1016   -14.2434 Any
  5527 H5527      1.8762    -2.1455   -14.9940 Any
  5528 H5528      0.4532    -1.8724   -14.6062 Any
  5529 O5529     -8.1167   -18.6393     7.5489 Any
  5530 H5530     -8.5304   -18.5846     6.6975 Any
  5531 H5531     -7.1889   -18.5646     7.3684 Any
  5532 O5532    -17.2758   -17.9101    -9.3956 Any
  5533 H5533    -17.8929   -17.1965    -9.3015 Any
  5534 H5534    -17.0382   -17.9004   -10.3134 Any
  5535 O5535    -15.9009    16.8315    -7.2795 Any
  5536 H5536    -16.6360    17.0769    -7.8256 Any
  5537 H5537    -15.3352    17.5924    -7.2850 Any
  5538 O5538     -6.3945    -2.9585   -12.8078 Any
  5539 H5539     -6.9640    -2.2282   -12.6051 Any
  5540 H5540     -6.8504    -3.7177   -12.4691 Any
  5541 O5541     18.3449    -4.6374    13.5304 Any
  5542 H5542     18.2250    -3.9065    12.9385 Any
  5543 H5543     17.8259    -5.3362    13.1546 Any
  5544 O5544      7.3167     6.0450    -8.6162 Any
  5545 H5545      6.5695     5.4857    -8.7826 Any
  5546 H5546      7.9806     5.7426    -9.2218 Any
  5547 O5547     10.7799    -8.9134   -14.9357 Any
  5548 H5548     11.4452    -8.3172   -14.6180 Any
  5549 H5549     10.0427    -8.7795   -14.3548 Any
  5550 O5550    -16.8598    -2.7734    -6.7513 Any
  5551 H5551    -16.5322    -2.8516    -5.8650 Any
  5552 H5552    -17.6975    -3.2172    -6.7360 Any
  5553 O5553     11.3723    -7.9694     9.2220 Any
  5554 H5554     11.6515    -8.5871     9.8849 Any
  5555 H5555     11.6222    -8.3718     8.4007 Any
  5556 O5556    -11.2190   -17.7469   -11.0574 Any
  5557 H5557    -10.9959   -16.8496   -10.8475 Any
  5558 H5558    -10.8873   -18.2522   -10.3269 Any
  5559 O5559      3.0845     5.8114    -5.4423 Any
  5560 H5560      2.1938     6.0019    -5.7053 Any
  5561 H5561      3.6198     6.3682    -5.9921 Any
  5562 O5562     -6.8250     6.1584   -16.5752 Any
  5563 H5563     -7.1143     6.3593   -15.6950 Any
  5564 H5564     -6.0859     6.7341   -16.7205 Any
  5565 O5565     -8.7419   -12.4969    -2.0288 Any
  5566 H5566     -9.4903   -12.9039    -2.4451 Any
  5567 H5567     -8.4511   -11.8416    -2.6492 Any
  5568 O5568     -5.6453    14.1296    -8.5521 Any
  5569 H5569     -5.3515    13.2768    -8.8440 Any
  5570 H5570     -6.5468    13.9948    -8.2911 Any
  5571 O5571    -17.4713   -12.9951    -0.5611 Any
  5572 H5572    -16.9895   -13.0267     0.2549 Any
  5573 H5573    -18.2793   -12.5491    -0.3439 Any
  5574 O5574      9.5852    16.9573     0.0322 Any
  5575 H5575      9.4704    17.8929    -0.0697 Any
  5576 H5576      8.9946    16.7198     0.7348 Any
  5577 O5577    -12.7871    10.4865    -1.7848 Any
  5578 H5578    -11.8424    10.5610    -1.7526 Any
  5579 H5579    -13.1029    11.2704    -1.3551 Any
  5580 O5580     16.2352    -8.3402    14.8141 Any
  5581 H5581     15.3552    -8.4317    14.4734 Any
  5582 H5582     16.6520    -7.7169    14.2339 Any
  5583 O5583    -14.5967   -13.9558     1.5494 Any
  5584 H5584    -14.1581   -14.7900     1.6527 Any
  5585 H5585    -14.1471   -13.3742     2.1482 Any
  5586 O5586      1.0244     8.0100    -3.5894 Any
  5587 H5587      0.8541     7.5499    -4.4007 Any
  5588 H5588      0.9055     8.9256    -3.8049 Any
  5589 O5589     18.0593    17.6336    19.3258 Any
  5590 H5590     18.7278    17.0481    19.6563 Any
  5591 H5591     17.5453    17.0994    18.7348 Any
  5592 O5592    -14.0200   -15.3287    -2.0447 Any
  5593 H5593    -13.4224   -14.7383    -1.6050 Any
  5594 H5594    -14.7258   -14.7723    -2.3467 Any
  5595 O5595     -3.1994   -18.3544     4.5949 Any
  5596 H5596     -2.2871   -18.1119     4.5066 Any
  5597 H5597     -3.5656   -18.2242     3.7301 Any
  5598 O5598    -10.2794    -7.2755    -0.3495 Any
  5599 H5599    -10.1697    -7.8172    -1.1199 Any
  5600 H5600    -10.8292    -7.7894     0.2271 Any
  5601 O5601     11.8634    17.7463    -2.6034 Any
  5602 H5602     12.4385    17.3477    -3.2431 Any
  5603 H5603     11.2166    17.0790    -2.4156 Any
  5604 O5604    -18.3811    11.1024    -9.7099 Any
  5605 H5605    -18.0050    11.4423   -10.5111 Any
  5606 H5606    -18.7181    11.8668    -9.2616 Any
  5607 O5607      8.5865    -1.6921    16.5950 Any
  5608 H5608      9.2498    -1.1199    16.2324 Any
  5609 H5609      8.5348    -2.4147    15.9835 Any
  5610 O5610      4.0520    16.5828     6.0719 Any
  5611 H5611      3.6811    16.5364     5.2006 Any
  5612 H5612      4.0899    15.6814     6.3633 Any
  5613 O5613      4.8174   -12.3752    18.1709 Any
  5614 H5614      4.3673   -12.1203    17.3763 Any
  5615 H5615      4.4935   -11.7767    18.8310 Any
  5616 O5616    -10.2020    14.6180     9.9877 Any
  5617 H5617     -9.7994    14.2182     9.2280 Any
  5618 H5618    -10.8228    15.2387     9.6296 Any
  5619 O5619      5.3296    -8.5910    19.0432 Any
  5620 H5620      4.6726    -8.0813    19.4987 Any
  5621 H5621      6.1524    -8.3148    19.4247 Any
  5622 O5622     -6.5219   -14.3568   -14.6209 Any
  5623 H5623     -6.9664   -14.8785   -13.9658 Any
  5624 H5624     -7.0638   -13.5851   -14.7192 Any
  5625 O5625     -1.0189     2.8988     9.8120 Any
  5626 H5626     -0.9847     3.4494     9.0410 Any
  5627 H5627     -0.1105     2.7389    10.0315 Any
  5628 O5628     -6.9773     3.8070   -18.5367 Any
  5629 H5629     -6.2493     3.2086   -18.6410 Any
  5630 H5630     -6.5991     4.5736   -18.1266 Any
  5631 O5631      4.0593    11.3265    13.7732 Any
  5632 H5632      4.9494    11.6090    13.6093 Any
  5633 H5633      4.1072    10.3796    13.7810 Any
  5634 O5634      1.5436    14.6350   -15.2462 Any
  5635 H5635      1.3604    13.8546   -14.7400 Any
  5636 H5636      2.0940    14.3344   -15.9571 Any
  5637 O5637      0.5977     6.7783    -5.9951 Any
  5638 H5638      0.9894     7.3914    -6.6031 Any
  5639 H5639     -0.3028     6.7008    -6.2815 Any
  5640 O5640     -1.5354   -15.4090     4.9782 Any
  5641 H5641     -1.8122   -15.9592     5.6990 Any
  5642 H5642     -0.5909   -15.4910     4.9647 Any
  5643 O5643     -1.2985   -11.8211    -5.6346 Any
  5644 H5644     -1.6499   -10.9673    -5.8501 Any
  5645 H5645     -0.3725   -11.6702    -5.4977 Any
  5646 O5646      6.9918    16.0698    -8.4641 Any
  5647 H5647      6.6500    16.7305    -7.8763 Any
  5648 H5648      6.3789    16.0539    -9.1873 Any
  5649 O5649      0.8828   -12.6383    -3.5323 Any
  5650 H5650      1.4532   -13.1272    -2.9539 Any
  5651 H5651      0.1509   -12.3837    -2.9861 Any
  5652 O5652     -1.1367   -19.2581     7.7252 Any
  5653 H5653     -1.9549   -19.6482     7.4471 Any
  5654 H5654     -1.2368   -18.3343     7.5366 Any
  5655 O5655    -13.4335     6.1058   -19.1624 Any
  5656 H5656    -14.1778     6.2538   -18.5941 Any
  5657 H5657    -13.5454     5.2180   -19.4758 Any
  5658 O5658      0.1054    13.1656     0.2698 Any
  5659 H5659      0.9558    12.8368     0.5300 Any
  5660 H5660      0.2665    13.6271    -0.5426 Any
  5661 O5661    -14.2186   -18.5826   -13.8472 Any
  5662 H5662    -14.0457   -19.5046   -13.7101 Any
  5663 H5663    -13.3600   -18.1875   -13.9223 Any
  5664 O5664    -13.8651   -11.7789    13.7023 Any
  5665 H5665    -14.2244   -11.1166    13.1268 Any
  5666 H5666    -13.6800   -12.5144    13.1333 Any
  5667 O5667     -8.5833    14.9967   -18.1125 Any
  5668 H5668     -9.3742    15.4547   -17.8606 Any
  5669 H5669     -8.7603    14.0871   -17.9121 Any
  5670 O5670     -1.0375     4.6772    -4.6259 Any
  5671 H5671     -1.0542     4.7788    -5.5684 Any
  5672 H5672     -0.1290     4.8073    -4.3880 Any
  5673 O5673    -12.9758    10.7197     4.4434 Any
  5674 H5674    -13.3499    11.4303     3.9394 Any
  5675 H5675    -13.6517    10.0550     4.4566 Any
  5676 O5676      8.9497   -12.5900    -1.3580 Any
  5677 H5677      9.2780   -12.1390    -0.5914 Any
  5678 H5678      9.0731   -13.5099    -1.1645 Any
  5679 O5679      7.6278    -0.5049   -19.6969 Any
  5680 H5680      7.0428    -0.7746   -19.0012 Any
  5681 H5681      7.0594    -0.3492   -20.4395 Any
  5682 O5682    -11.9946    14.9853    -7.9588 Any
  5683 H5683    -12.1316    15.9220    -8.0124 Any
  5684 H5684    -11.6046    14.7533    -8.7912 Any
  5685 O5685    -16.5838     1.6004     8.8114 Any
  5686 H5686    -16.2259     2.4135     8.4802 Any
  5687 H5687    -15.9804     1.3341     9.4925 Any
  5688 O5688     -5.3509    -9.1068   -18.8639 Any
  5689 H5689     -5.5011    -9.9657   -18.4916 Any
  5690 H5690     -4.8236    -9.2699   -19.6348 Any
  5691 O5691     -0.4606     5.4381    -9.7041 Any
  5692 H5692     -1.1974     5.3341   -10.2917 Any
  5693 H5693     -0.0716     4.5750    -9.6544 Any
  5694 O5694    -11.3488   -16.3341    -6.6816 Any
  5695 H5695    -12.0613   -15.9752    -7.1940 Any
  5696 H5696    -10.5750   -15.8944    -7.0084 Any
  5697 O5697    -10.9077    17.0972   -15.3691 Any
  5698 H5698    -10.9420    16.3964   -16.0067 Any
  5699 H5699    -11.2868    17.8435   -15.8144 Any
  5700 O5700      5.6912    -0.4186    18.2450 Any
  5701 H5701      4.7472    -0.3374    18.2094 Any
  5702 H5702      5.8542    -1.3480    18.1526 Any
  5703 O5703     -4.1647     6.8207     7.2108 Any
  5704 H5704     -4.8970     7.3906     7.4049 Any
  5705 H5705     -3.3984     7.3333     7.4321 Any
  5706 O5706      5.8410   -17.2605    11.6135 Any
  5707 H5707      6.2509   -18.1152    11.5943 Any
  5708 H5708      5.2988   -17.2384    10.8360 Any
  5709 O5709     -8.5450   -11.3643     6.5460 Any
  5710 H5710     -8.8511   -12.2272     6.2996 Any
  5711 H5711     -8.3392   -11.4387     7.4685 Any
  5712 O5712    -18.4722    13.8641    -8.3984 Any
  5713 H5713    -18.6547    14.1470    -7.5121 Any
  5714 H5714    -17.6497    14.2818    -8.6175 Any
  5715 O5715     -6.1321    -6.0690    12.9103 Any
  5716 H5716     -6.1314    -6.5079    12.0699 Any
  5717 H5717     -5.2762    -6.2510    13.2752 Any
  5718 O5718     -8.8162    18.2787     7.7551 Any
  5719 H5719     -8.6481    17.7611     8.5315 Any
  5720 H5720     -9.4753    18.9050     8.0241 Any
  5721 O5721     12.0329   -16.0918    -1.2606 Any
  5722 H5722     12.3637   -16.3050    -0.3980 Any
  5723 H5723     12.5944   -15.3911    -1.5649 Any
  5724 O5724    -13.1525    10.3663    16.3384 Any
  5725 H5725    -13.7993    10.7047    15.7334 Any
  5726 H5726    -12.3190    10.5686    15.9343 Any
  5727 O5727     14.5992    -3.0209     6.2131 Any
  5728 H5728     14.1780    -3.5290     5.5324 Any
  5729 H5729     15.4713    -3.3871     6.2790 Any
  5730 O5730    -18.0424    17.1836   -16.9597 Any
  5731 H5731    -18.4659    17.7589   -16.3364 Any
  5732 H5732    -17.1584    17.5187   -17.0312 Any
  5733 O5733     -5.6972     7.9452    13.1547 Any
  5734 H5734     -4.8158     8.2719    13.0306 Any
  5735 H5735     -5.7542     7.7593    14.0827 Any
  5736 O5736     -1.2875    -5.8037    16.6592 Any
  5737 H5737     -1.9737    -5.2981    17.0745 Any
  5738 H5738     -0.6146    -5.8823    17.3225 Any
  5739 O5739      8.4097    12.2646     6.1025 Any
  5740 H5740      8.6417    11.6524     6.7883 Any
  5741 H5741      7.9397    12.9563     6.5492 Any
  5742 O5742      5.5711     6.8513    -6.4333 Any
  5743 H5743      6.3266     6.5512    -6.9212 Any
  5744 H5744      5.7130     6.5301    -5.5526 Any
  5745 O5745     14.0651    -1.0294    -7.7498 Any
  5746 H5746     13.5246    -0.3390    -8.1107 Any
  5747 H5747     14.1795    -1.6411    -8.4651 Any
  5748 O5748     16.7758   -12.4392    -3.1429 Any
  5749 H5749     17.6972   -12.5274    -2.9376 Any
  5750 H5750     16.7140   -12.6623    -4.0623 Any
  5751 O5751     19.3503   -11.1985     0.2865 Any
  5752 H5752     19.3956   -11.4434    -0.6283 Any
  5753 H5753     18.4238   -11.0987     0.4610 Any
  5754 O5754    -13.6472    -8.3457   -16.4347 Any
  5755 H5755    -13.8530    -8.4345   -17.3559 Any
  5756 H5756    -14.2155    -8.9693   -16.0022 Any
  5757 O5757     -3.2008    16.3324    17.3293 Any
  5758 H5758     -2.5182    15.6853    17.2095 Any
  5759 H5759     -2.7540    17.1658    17.2605 Any
  5760 O5760    -12.7860    -9.6474    -1.3227 Any
  5761 H5761    -13.7335    -9.6346    -1.2936 Any
  5762 H5762    -12.5285   -10.0800    -0.5193 Any
  5763 O5763    -17.1263     6.8289   -12.2401 Any
  5764 H5764    -17.2259     6.0121   -11.7691 Any
  5765 H5765    -18.0062     7.1764   -12.3035 Any
  5766 O5766     11.5999    -3.9900   -11.2129 Any
  5767 H5767     11.2494    -3.5135   -10.4719 Any
  5768 H5768     11.3544    -3.4714   -11.9676 Any
  5769 O5769     15.2467   -14.8030   -18.7069 Any
  5770 H5770     15.4694   -15.7199   -18.6145 Any
  5771 H5771     15.9431   -14.3420   -18.2582 Any
  5772 O5772      4.8141     1.7689   -19.6009 Any
  5773 H5773      4.8882     2.3204   -20.3685 Any
  5774 H5774      5.5340     2.0361   -19.0448 Any
  5775 O5775    -11.5532    -0.3574   -11.7206 Any
  5776 H5776    -12.2895     0.0615   -11.2949 Any
  5777 H5777    -11.3174    -1.0706   -11.1420 Any
  5778 O5778     14.2216    17.8585     0.5909 Any
  5779 H5779     14.8577    17.3871     0.0694 Any
  5780 H5780     14.1507    18.7060     0.1719 Any
  5781 O5781    -14.2036    19.0558     5.2651 Any
  5782 H5782    -13.2672    19.0532     5.4132 Any
  5783 H5783    -14.5725    18.7047     6.0648 Any
  5784 O5784     11.9860   -13.0767     0.3378 Any
  5785 H5785     11.1434   -12.7199     0.0896 Any
  5786 H5786     11.8074   -13.5931     1.1126 Any
  5787 O5787     18.5760     6.4447    20.0404 Any
  5788 H5788     18.9023     5.5779    20.2429 Any
  5789 H5789     19.3206     6.8990    19.6689 Any
  5790 O5790    -16.9001    -6.2061    13.7275 Any
  5791 H5791    -16.2539    -6.2626    14.4190 Any
  5792 H5792    -17.5268    -6.8880    13.9304 Any
  5793 O5793     -7.2055     1.5993    11.8061 Any
  5794 H5794     -6.7172     1.4695    11.0039 Any
  5795 H5795     -7.9625     1.0352    11.7185 Any
  5796 O5796      1.7359     9.0562    -7.3818 Any
  5797 H5797      2.4276     9.2922    -6.7778 Any
  5798 H5798      1.0921     9.7458    -7.2882 Any
  5799 O5799    -18.3530    -5.4218    16.3078 Any
  5800 H5800    -17.6879    -4.7813    16.0927 Any
  5801 H5801    -19.1619    -4.9278    16.3289 Any
  5802 O5802      8.9218    -4.2553    12.3082 Any
  5803 H5803      9.0310    -3.8987    11.4366 Any
  5804 H5804      8.8614    -5.1923    12.1767 Any
  5805 O5805     17.6709     4.4720     5.0503 Any
  5806 H5806     17.4668     3.9947     5.8436 Any
  5807 H5807     18.3396     5.0919     5.3103 Any
  5808 O5808     10.6583     0.6101     0.2566 Any
  5809 H5809     11.4481     1.0094     0.5966 Any
  5810 H5810     10.5209    -0.1512     0.8047 Any
  5811 O5811      4.5079    -8.4622   -15.4398 Any
  5812 H5812      4.6095    -7.6558   -14.9516 Any
  5813 H5813      5.2188    -8.4524   -16.0671 Any
  5814 O5814    -13.5591    19.3493    19.6731 Any
  5815 H5815    -12.8739    18.6972    19.6094 Any
  5816 H5816    -13.7085    19.6265    18.7788 Any
  5817 O5817      5.4512     2.9678    12.1171 Any
  5818 H5818      5.1132     2.1203    11.8595 Any
  5819 H5819      5.5491     2.9094    13.0583 Any
  5820 O5820     11.8950   -19.9468     3.0453 Any
  5821 H5821     11.3173   -20.6945     3.1232 Any
  5822 H5822     11.3238   -19.2274     2.8106 Any
  5823 O5823     -2.3016    -0.8286     8.4228 Any
  5824 H5824     -1.9426     0.0096     8.1629 Any
  5825 H5825     -1.8496    -1.4605     7.8794 Any
  5826 O5826     -2.6181   -17.0405   -18.0323 Any
  5827 H5827     -3.4497   -16.7216   -18.3574 Any
  5828 H5828     -2.6929   -17.9848   -18.0716 Any
  5829 O5829      8.2248     4.7090    -3.4432 Any
  5830 H5830      7.7718     4.0915    -2.8842 Any
  5831 H5831      7.7090     5.5027    -3.3889 Any
  5832 O5832     10.8751     6.5428    13.7783 Any
  5833 H5833     11.6052     5.9442    13.6906 Any
  5834 H5834     11.2505     7.4003    13.6280 Any
  5835 O5835      9.5773     8.7121   -14.8581 Any
  5836 H5836      9.7366     8.2611   -15.6766 Any
  5837 H5837      9.4636     8.0185   -14.2218 Any
  5838 O5838     12.6508     8.5460    12.7055 Any
  5839 H5839     12.5601     7.7738    12.1629 Any
  5840 H5840     13.5464     8.5160    13.0152 Any
  5841 O5841      2.8431    13.0705    15.6898 Any
  5842 H5842      3.0647    12.9942    16.6085 Any
  5843 H5843      3.3264    12.3716    15.2691 Any
  5844 O5844     -5.8850   -14.0289     3.7016 Any
  5845 H5845     -5.4638   -13.8630     2.8685 Any
  5846 H5846     -6.8081   -14.0902     3.4941 Any
  5847 O5847    -17.4009     4.6480    -2.2854 Any
  5848 H5848    -17.3390     5.4191    -2.8335 Any
  5849 H5849    -17.3878     3.9211    -2.8939 Any
  5850 O5850    -11.1548     1.5045    15.3666 Any
  5851 H5851    -11.9843     1.6731    15.7936 Any
  5852 H5852    -11.2132     0.6027    15.0798 Any
  5853 O5853      0.1885    -3.6642    19.1471 Any
  5854 H5854     -0.2268    -4.4371    18.7878 Any
  5855 H5855      1.0828    -3.9304    19.3153 Any
  5856 O5856     -4.7141     0.0031    -5.6055 Any
  5857 H5857     -4.7357     0.9064    -5.3183 Any
  5858 H5858     -3.9392    -0.3588    -5.1963 Any
  5859 O5859     17.9149    -2.8046     0.1626 Any
  5860 H5860     18.0951    -2.7186     1.0894 Any
  5861 H5861     18.2851    -2.0229    -0.2259 Any
  5862 O5862      4.5478   -12.4686    -8.2062 Any
  5863 H5863      4.5993   -11.8956    -8.9599 Any
  5864 H5864      4.3191   -13.3155    -8.5657 Any
  5865 O5865    -16.7074    12.8673   -15.2593 Any
  5866 H5866    -16.7568    12.6190   -16.1730 Any
  5867 H5867    -17.5457    13.2705   -15.0761 Any
  5868 O5868     15.4330    -2.2730    -4.0619 Any
  5869 H5869     14.9110    -2.6336    -4.7665 Any
  5870 H5870     16.2916    -2.1447    -4.4429 Any
  5871 O5871     -4.1050     2.6951   -18.7169 Any
  5872 H5872     -3.7198     2.2814   -19.4780 Any
  5873 H5873     -3.5570     3.4514   -18.5536 Any
  5874 O5874     -0.7632    13.9111     2.7898 Any
  5875 H5875     -0.4698    13.6896     1.9159 Any
  5876 H5876     -0.1424    14.5607     3.0923 Any
  5877 O5877     12.5608     2.5833     9.9316 Any
  5878 H5878     11.7170     2.8597     9.5990 Any
  5879 H5879     13.0679     3.3823     9.9889 Any
  5880 O5880      7.4748   -10.8999     3.3390 Any
  5881 H5881      8.3807   -10.7860     3.5944 Any
  5882 H5882      7.4552   -11.7386     2.8973 Any
  5883 O5883    -16.4069    -3.4486    10.9892 Any
  5884 H5884    -16.7439    -3.4905    11.8744 Any
  5885 H5885    -16.6051    -4.2982    10.6181 Any
  5886 O5886     10.1838    16.7581   -10.3119 Any
  5887 H5887     10.0456    17.2493    -9.5129 Any
  5888 H5888     10.8072    17.2750   -10.8049 Any
  5889 O5889     -3.3351   -12.5992   -17.4591 Any
  5890 H5890     -3.0960   -11.8106   -17.9279 Any
  5891 H5891     -2.5073   -13.0002   -17.2292 Any
  5892 O5892    -18.1237   -19.8925    -7.6531 Any
  5893 H5893    -17.5435   -19.1464    -7.7284 Any
  5894 H5894    -18.6039   -19.7410    -6.8499 Any
  5895 O5895     -3.3802   -20.1960    16.3642 Any
  5896 H5896     -2.9219   -19.3707    16.2767 Any
  5897 H5897     -4.1998   -20.0633    15.9065 Any
  5898 O5898     11.3346    11.2090    17.4443 Any
  5899 H5899     11.0264    12.0817    17.2385 Any
  5900 H5900     11.9081    11.3283    18.1898 Any
  5901 O5901     17.2551    18.9967    15.9371 Any
  5902 H5902     17.6575    19.3903    16.7000 Any
  5903 H5903     16.5143    19.5557    15.7431 Any
  5904 O5904      7.2690    -3.4752    14.2036 Any
  5905 H5905      8.0631    -3.6392    13.7122 Any
  5906 H5906      6.8070    -4.3030    14.1934 Any
  5907 O5907    -17.2742   -16.5686    -1.8035 Any
  5908 H5908    -17.9456   -17.2285    -1.9160 Any
  5909 H5909    -17.1439   -16.2106    -2.6717 Any
  5910 O5910      3.2945     8.9010    -0.0714 Any
  5911 H5911      2.4472     8.4777    -0.1137 Any
  5912 H5912      3.3030     9.4920    -0.8128 Any
  5913 O5913    -16.9465    -3.1554   -16.0806 Any
  5914 H5914    -17.5127    -3.3183   -16.8233 Any
  5915 H5915    -17.5237    -3.1870   -15.3291 Any
  5916 O5916    -14.5156    -7.4158     9.4315 Any
  5917 H5917    -13.5703    -7.4519     9.3678 Any
  5918 H5918    -14.6894    -7.3445    10.3608 Any
  5919 O5919     -9.1783    -2.7006    -2.6052 Any
  5920 H5920     -9.2794    -3.0333    -3.4873 Any
  5921 H5921     -9.6979    -3.2849    -2.0690 Any
  5922 O5922     14.3617    -8.5446   -13.2065 Any
  5923 H5923     14.4042    -8.5010   -12.2603 Any
  5924 H5924     13.8254    -7.8035   -13.4555 Any
  5925 O5925     -9.5431    13.5689     7.5053 Any
  5926 H5926     -9.8101    12.6734     7.3451 Any
  5927 H5927     -9.7186    14.0196     6.6899 Any
  5928 O5928    -11.9845    12.1193    10.3604 Any
  5929 H5929    -12.0536    13.0230    10.0822 Any
  5930 H5930    -11.0558    11.9806    10.4917 Any
  5931 O5931     16.9378    17.0142    12.6983 Any
  5932 H5932     17.8220    16.7793    12.4495 Any
  5933 H5933     16.8214    17.8935    12.3634 Any
  5934 O5934    -17.0114    -8.5869   -17.0594 Any
  5935 H5935    -16.4370    -9.1869   -16.6022 Any
  5936 H5936    -17.0794    -8.9427   -17.9355 Any
  5937 O5937    -10.4871    16.8860    -4.3065 Any
  5938 H5938     -9.8858    17.1749    -3.6327 Any
  5939 H5939    -11.3015    16.7279    -3.8475 Any
  5940 O5940     14.1975    12.6089   -14.0339 Any
  5941 H5941     14.6968    13.1100   -13.4025 Any
  5942 H5942     13.3678    12.4447   -13.6056 Any
  5943 O5943     -4.9257    15.0856   -14.3147 Any
  5944 H5944     -5.0155    15.8088   -13.7082 Any
  5945 H5945     -5.5170    15.2957   -15.0255 Any
  5946 O5946    -12.1624    -0.9864    11.2292 Any
  5947 H5947    -12.4459    -0.2826    11.7977 Any
  5948 H5948    -12.7710    -0.9658    10.5025 Any
  5949 O5949     15.2064    -5.1152    15.2134 Any
  5950 H5950     14.7991    -5.9490    15.0190 Any
  5951 H5951     15.0237    -4.9691    16.1322 Any
  5952 O5952     -1.3596    19.5275    12.2563 Any
  5953 H5953     -2.1017    19.1368    12.6986 Any
  5954 H5954     -1.7001    20.3294    11.8822 Any
  5955 O5955     12.2415    14.6356   -19.4061 Any
  5956 H5956     12.9781    14.2139   -18.9838 Any
  5957 H5957     12.5151    15.5363   -19.5193 Any
  5958 O5958     13.8925    -3.0451     9.1244 Any
  5959 H5959     14.7814    -3.3145     9.3147 Any
  5960 H5960     13.7876    -3.2076     8.1963 Any
  5961 O5961      0.7276    10.4278   -17.5905 Any
  5962 H5962      1.4791    10.1288   -18.0852 Any
  5963 H5963     -0.0074     9.9645   -17.9701 Any
  5964 O5964      5.8875     7.5193    -0.0858 Any
  5965 H5965      4.9507     7.3962    -0.1636 Any
  5966 H5966      5.9968     8.0200     0.7119 Any
  5967 O5967    -18.0123     0.6414    13.5648 Any
  5968 H5968    -18.0432    -0.0750    12.9445 Any
  5969 H5969    -17.9641     1.4207    13.0269 Any
  5970 O5970      8.9209   -15.3240    -2.0845 Any
  5971 H5971      8.1889   -15.5249    -2.6527 Any
  5972 H5972      9.4916   -16.0777    -2.1555 Any
  5973 O5973    -12.7253    -6.9018    -2.0724 Any
  5974 H5974    -12.9264    -7.8193    -1.9433 Any
  5975 H5975    -13.0789    -6.6982    -2.9282 Any
  5976 O5976    -12.6010    -6.1812     2.6292 Any
  5977 H5977    -12.8651    -5.9788     1.7414 Any
  5978 H5978    -13.0467    -5.5371     3.1634 Any
  5979 O5979     -2.9264    -7.7645     2.1135 Any
  5980 H5980     -2.4734    -6.9411     2.2387 Any
  5981 H5981     -2.4999    -8.3646     2.7110 Any
  5982 O5982     -2.3842     2.1847     7.4743 Any
  5983 H5983     -3.0820     2.7924     7.6809 Any
  5984 H5984     -1.6893     2.4043     8.0808 Any
  5985 O5985     -6.2085     8.6715     8.2581 Any
  5986 H5986     -6.6641     9.4589     7.9910 Any
  5987 H5987     -6.3244     8.6363     9.1984 Any
  5988 O5988     17.1514    -8.2518    10.2947 Any
  5989 H5989     17.9535    -8.0958    10.7755 Any
  5990 H5990     16.7862    -9.0336    10.6874 Any
  5991 O5991     -1.9679    17.9676     8.7135 Any
  5992 H5992     -1.7839    18.7248     9.2535 Any
  5993 H5993     -1.6022    17.2370     9.1947 Any
  5994 O5994      2.8034    -8.5374     6.9987 Any
  5995 H5995      3.7187    -8.5141     7.2449 Any
  5996 H5996      2.7676    -9.1442     6.2711 Any
  5997 O5997     19.4462    17.3774    11.5989 Any
  5998 H5998     19.5591    18.0758    10.9677 Any
  5999 H5999     19.9278    16.6465    11.2346 Any
  6000 O6000      8.9724   -13.3348   -11.3322 Any
  6001 H6001      9.7308   -13.4926   -10.7855 Any
  6002 H6002      8.2769   -13.1294   -10.7216 Any
  6003 O6003    -15.9218     6.8931     7.6497 Any
  6004 H6004    -16.5254     7.5983     7.8429 Any
  6005 H6005    -16.3857     6.1060     7.9030 Any
  6006 O6006     -9.6932    13.9161    16.7824 Any
  6007 H6007    -10.5728    13.6887    16.5113 Any
  6008 H6008     -9.1355    13.5662    16.1003 Any
  6009 O6009     -8.3018     5.9088    -9.5586 Any
  6010 H6010     -7.9125     6.4668   -10.2189 Any
  6011 H6011     -7.6394     5.2547    -9.3785 Any
  6012 O6012     -6.1556     5.2222    -0.2200 Any
  6013 H6013     -6.7097     4.8975    -0.9175 Any
  6014 H6014     -5.3339     5.4294    -0.6451 Any
  6015 O6015    -12.1477    11.6507     1.6457 Any
  6016 H6016    -11.6368    12.4457     1.5694 Any
  6017 H6017    -13.0423    11.9269     1.4962 Any
  6018 O6018    -11.0743    -1.1123    17.7719 Any
  6019 H6019    -10.7923    -0.8766    18.6458 Any
  6020 H6020    -10.4943    -0.6315    17.1963 Any
  6021 O6021     18.5812    16.3047     8.5677 Any
  6022 H6022     17.7837    16.8039     8.6843 Any
  6023 H6023     18.5378    15.6278     9.2301 Any
  6024 O6024    -13.6809     8.3384     7.5060 Any
  6025 H6025    -14.3578     7.6755     7.5396 Any
  6026 H6026    -12.8681     7.8504     7.5216 Any
  6027 O6027     17.1452     5.6921    -8.0538 Any
  6028 H6028     17.5929     5.7122    -7.2183 Any
  6029 H6029     17.3345     4.8321    -8.4052 Any
  6030 O6030      2.1666   -13.2833     6.8260 Any
  6031 H6031      2.4237   -13.1628     7.7306 Any
  6032 H6032      2.8440   -13.8345     6.4570 Any
  6033 O6033    -14.1348    16.0667     6.2842 Any
  6034 H6034    -13.4768    16.3944     5.6855 Any
  6035 H6035    -14.0943    15.1241     6.1904 Any
  6036 O6036    -15.3366    -1.4015   -17.2289 Any
  6037 H6037    -15.7444    -2.1801   -16.8734 Any
  6038 H6038    -15.2953    -0.7990   -16.4981 Any
  6039 O6039    -13.7260    -1.5251    18.9586 Any
  6040 H6040    -13.9116    -0.7249    19.4320 Any
  6041 H6041    -12.9503    -1.3273    18.4506 Any
  6042 O6042     -5.9700   -17.2864    17.7171 Any
  6043 H6043     -6.7684   -17.1233    18.2016 Any
  6044 H6044     -5.4391   -16.5150    17.8657 Any
  6045 O6045    -14.1087     2.6218     2.4651 Any
  6046 H6046    -14.0101     2.5146     1.5282 Any
  6047 H6047    -14.7267     3.3346     2.5598 Any
  6048 O6048      9.0203   -13.5665    10.4384 Any
  6049 H6049      8.6110   -12.8082    10.0430 Any
  6050 H6050      8.2955   -14.1036    10.7302 Any
  6051 O6051      5.1480    -2.1431     9.7297 Any
  6052 H6052      5.1776    -2.7720    10.4385 Any
  6053 H6053      4.9016    -1.3271    10.1449 Any
  6054 O6054     -5.2357     7.3986     4.1931 Any
  6055 H6055     -6.1259     7.4863     3.8787 Any
  6056 H6056     -5.2445     6.6079     4.7162 Any
  6057 O6057     -4.9926    17.3234    -6.4538 Any
  6058 H6058     -5.6295    17.2543    -5.7549 Any
  6059 H6059     -5.4783    17.1138    -7.2407 Any
  6060 O6060      1.3009    15.2057    18.2715 Any
  6061 H6061      0.7631    15.9183    18.5906 Any
  6062 H6062      2.1749    15.5698    18.2230 Any
  6063 O6063      0.1323    -9.2198    18.2673 Any
  6064 H6064      0.4641    -9.6629    17.4976 Any
  6065 H6065     -0.0072    -9.9124    18.8996 Any
  6066 O6066     11.5537    -5.7044    -2.4258 Any
  6067 H6067     11.2198    -5.7778    -3.3101 Any
  6068 H6068     11.9796    -4.8577    -2.4012 Any
  6069 O6069     11.4833     6.8842   -10.2603 Any
  6070 H6070     12.2086     7.4168   -10.5588 Any
  6071 H6071     10.8875     7.4993    -9.8532 Any
  6072 O6072    -16.2564     4.1073     7.8744 Any
  6073 H6073    -15.7494     4.4665     7.1583 Any
  6074 H6074    -17.1289     4.0009     7.5191 Any
  6075 O6075    -14.2245    13.1542    -8.1489 Any
  6076 H6076    -13.3604    13.5160    -8.0028 Any
  6077 H6077    -14.2954    12.4458    -7.5227 Any
  6078 O6078    -16.7216    15.9844   -14.0185 Any
  6079 H6079    -17.3668    15.3222   -14.2288 Any
  6080 H6080    -16.9205    16.2363   -13.1263 Any
  6081 O6081    -18.8622    -0.1184    17.4277 Any
  6082 H6082    -19.4271    -0.3206    16.6936 Any
  6083 H6083    -18.4029    -0.9286    17.6054 Any
  6084 O6084      6.2393    13.2604    15.7471 Any
  6085 H6085      6.6371    12.4030    15.6731 Any
  6086 H6086      6.2030    13.4269    16.6797 Any
  6087 O6087     -9.0575   -17.1088     2.8592 Any
  6088 H6088     -8.8396   -16.2031     3.0357 Any
  6089 H6089     -8.2264   -17.5197     2.6609 Any
  6090 O6090      7.6185    19.5652   -18.8797 Any
  6091 H6091      6.8853    19.0946   -18.5057 Any
  6092 H6092      7.7956    20.2615   -18.2610 Any
  6093 O6093     15.6400     3.6628   -19.4698 Any
  6094 H6094     15.9530     3.5206   -20.3534 Any
  6095 H6095     16.3047     3.2750   -18.9160 Any
  6096 O6096    -14.0687    -8.9880     2.5547 Any
  6097 H6097    -14.2278    -8.1517     2.1373 Any
  6098 H6098    -13.1305    -9.1102     2.4939 Any
  6099 O6099     -6.0750    17.2013    -9.3731 Any
  6100 H6100     -5.2377    17.6425    -9.3169 Any
  6101 H6101     -5.8620    16.2786    -9.3262 Any
  6102 O6102      9.2756   -18.1743    19.5701 Any
  6103 H6103      8.4424   -18.6011    19.4202 Any
  6104 H6104      9.5574   -18.4924    20.4176 Any
  6105 O6105      0.9887    -6.2950     1.2598 Any
  6106 H6106      0.3732    -6.0183     1.9257 Any
  6107 H6107      1.8367    -6.2367     1.6799 Any
  6108 O6108     17.0284   -11.9473    15.8493 Any
  6109 H6109     17.2522   -11.1261    16.2670 Any
  6110 H6110     16.8879   -11.7214    14.9393 Any
  6111 O6111      4.7774    16.9270     2.2324 Any
  6112 H6112      4.2575    16.3967     2.8217 Any
  6113 H6113      4.3877    16.7875     1.3794 Any
  6114 O6114    -18.1619     5.6493   -15.2617 Any
  6115 H6115    -18.0813     4.7284   -15.4727 Any
  6116 H6116    -17.7036     5.7460   -14.4375 Any
  6117 O6117     10.6017    -8.4092    14.9741 Any
  6118 H6118      9.8842    -8.6395    15.5494 Any
  6119 H6119     10.1823    -8.1000    14.1819 Any
  6120 O6120     -0.1325    -8.2803     7.3588 Any
  6121 H6121      0.4375    -9.0272     7.4857 Any
  6122 H6122     -0.5292    -8.4245     6.5098 Any
  6123 O6123    -17.6664    12.2018    -2.2144 Any
  6124 H6124    -18.5458    12.3429    -2.5395 Any
  6125 H6125    -17.3599    11.4353    -2.6807 Any
  6126 O6126      1.0544    -6.5661     4.9108 Any
  6127 H6127      1.0426    -7.4464     4.5589 Any
  6128 H6128      1.1677    -6.6840     5.8446 Any
  6129 O6129     19.9686   -11.9977    13.5674 Any
  6130 H6130     19.4683   -11.1943    13.5122 Any
  6131 H6131     20.0278   -12.1785    14.4963 Any
  6132 O6132     -3.1579    -9.8024    -6.0043 Any
  6133 H6133     -3.3489    -8.8840    -6.1420 Any
  6134 H6134     -3.3814   -10.2183    -6.8265 Any
  6135 O6135    -14.8557     9.0547     4.8064 Any
  6136 H6136    -15.0757     8.8349     5.7021 Any
  6137 H6137    -14.6019     8.2299     4.4139 Any
  6138 O6138      1.9817    -4.7955    -0.9960 Any
  6139 H6139      1.4400    -5.3333    -0.4338 Any
  6140 H6140      2.7550    -5.3205    -1.1553 Any
  6141 O6141      5.8594    19.0172   -11.4206 Any
  6142 H6142      6.7254    18.7204   -11.6671 Any
  6143 H6143      5.2730    18.5502   -12.0011 Any
  6144 O6144    -10.7886   -13.6642    -3.2810 Any
  6145 H6145    -11.4184   -13.5226    -2.5866 Any
  6146 H6146    -10.9535   -14.5501    -3.5756 Any
  6147 O6147      8.9428     3.7111     4.8965 Any
  6148 H6148      8.4627     3.8316     5.7050 Any
  6149 H6149      9.4509     4.5058     4.8001 Any
  6150 O6150      2.2279   -12.8429   -14.8288 Any
  6151 H6151      2.1308   -13.2973   -14.0024 Any
  6152 H6152      1.3908   -12.9517   -15.2606 Any
  6153 O6153     19.3132    10.5090    16.3726 Any
  6154 H6154     18.5628    10.0659    15.9991 Any
  6155 H6155     19.1342    11.4311    16.2437 Any
  6156 O6156    -11.2718   -11.7423    15.5646 Any
  6157 H6157    -12.0365   -11.1826    15.5334 Any
  6158 H6158    -11.2421   -12.0558    16.4589 Any
  6159 O6159     14.5800    11.1112   -16.2661 Any
  6160 H6160     15.0064    10.2913   -16.0540 Any
  6161 H6161     14.4750    11.5483   -15.4313 Any
  6162 O6162     -5.6185    -4.6322   -17.4875 Any
  6163 H6163     -4.9991    -4.1187   -16.9859 Any
  6164 H6164     -5.8632    -5.3424   -16.9090 Any
  6165 O6165     -4.6130    -0.1039     3.9251 Any
  6166 H6166     -4.4452     0.4398     4.6836 Any
  6167 H6167     -5.4089     0.2493     3.5500 Any
  6168 O6168      2.5915     7.5047     4.3824 Any
  6169 H6169      2.9690     7.4450     5.2501 Any
  6170 H6170      1.7049     7.8073     4.5284 Any
  6171 O6171     -1.9315    -9.3556   -16.6138 Any
  6172 H6172     -2.6113    -9.9341   -16.2943 Any
  6173 H6173     -1.5785    -9.7993   -17.3737 Any
  6174 O6174      4.4134     9.7529    -6.2906 Any
  6175 H6175      4.8544     9.0517    -5.8294 Any
  6176 H6176      4.7872    10.5467    -5.9313 Any
  6177 O6177     12.7648   -10.5551     0.9589 Any
  6178 H6178     13.4565   -10.8774     1.5215 Any
  6179 H6179     12.1698   -11.2877     0.8688 Any
  6180 O6180     10.8300    -1.7082    -2.4430 Any
  6181 H6181     10.8995    -1.9077    -3.3673 Any
  6182 H6182     11.5873    -2.1233    -2.0518 Any
  6183 O6183     -4.1382     5.6148    -6.6445 Any
  6184 H6184     -3.2840     6.0031    -6.5091 Any
  6185 H6185     -4.3706     5.2497    -5.8009 Any
  6186 O6186      4.4197   -18.1094     2.4755 Any
  6187 H6187      4.1332   -17.2171     2.3322 Any
  6188 H6188      3.6445   -18.5630     2.7792 Any
  6189 O6189    -15.2055    -2.7009    -8.7410 Any
  6190 H6190    -15.5778    -2.0454    -9.3160 Any
  6191 H6191    -15.8802    -2.8620    -8.0946 Any
  6192 O6192     -6.6445     8.9610    15.7202 Any
  6193 H6193     -7.1570     9.0435    16.5136 Any
  6194 H6194     -6.4246     9.8526    15.4845 Any
  6195 O6195    -10.9072    11.5101    -3.8297 Any
  6196 H6196    -10.8924    12.3747    -4.2184 Any
  6197 H6197    -10.0570    11.4181    -3.4202 Any
  6198 O6198    -11.8419   -10.0464   -10.0114 Any
  6199 H6199    -11.1261   -10.6671   -10.0462 Any
  6200 H6200    -12.5039   -10.4135   -10.5822 Any
  6201 O6201      9.5089   -12.9908    15.4852 Any
  6202 H6202     10.2209   -12.3758    15.6023 Any
  6203 H6203      9.0873   -12.7173    14.6812 Any
  6204 O6204    -14.1604     8.6889   -17.5807 Any
  6205 H6205    -13.9259     9.5227   -17.1950 Any
  6206 H6206    -13.6863     8.6640   -18.4014 Any
  6207 O6207    -12.2366    -6.1828     6.5687 Any
  6208 H6208    -12.5957    -6.9725     6.1862 Any
  6209 H6209    -11.5637    -5.9077     5.9600 Any
  6210 O6210    -14.1919     4.2351   -11.3840 Any
  6211 H6211    -14.4584     4.4047   -12.2779 Any
  6212 H6212    -13.6262     4.9627   -11.1617 Any
  6213 O6213     -4.8805    13.0602   -18.2073 Any
  6214 H6214     -5.2887    13.7808   -18.6689 Any
  6215 H6215     -3.9511    13.2409   -18.2575 Any
  6216 O6216    -18.1055   -10.8703    17.8661 Any
  6217 H6217    -17.6710   -10.0845    17.5618 Any
  6218 H6218    -18.8616   -10.9588    17.3010 Any
  6219 O6219      4.1417   -11.6421     7.7061 Any
  6220 H6220      4.5921   -12.3644     8.1236 Any
  6221 H6221      4.8216   -11.1758     7.2379 Any
  6222 O6222     14.4221     7.1865    -1.0681 Any
  6223 H6223     14.5686     8.0480    -1.4359 Any
  6224 H6224     15.1931     6.6901    -1.3089 Any
  6225 O6225     -0.0267     9.2573    16.6881 Any
  6226 H6226     -0.6033     9.3555    17.4343 Any
  6227 H6227     -0.3782     8.5172    16.2110 Any
  6228 O6228     12.0536    10.8586    -4.8403 Any
  6229 H6229     11.6340    10.0431    -4.6001 Any
  6230 H6230     11.4181    11.3018    -5.3868 Any
  6231 O6231     -0.4055   -18.4497    19.9707 Any
  6232 H6232     -1.1952   -18.3823    19.4504 Any
  6233 H6233     -0.2555   -17.5702    20.2915 Any
  6234 O6234     11.0205    14.2439    15.0346 Any
  6235 H6235     11.5244    13.4408    15.0376 Any
  6236 H6236     10.4136    14.1473    15.7566 Any
  6237 O6237     -3.5893     8.7373     9.5644 Any
  6238 H6238     -4.0189     9.5132     9.2293 Any
  6239 H6239     -4.1543     8.0213     9.3056 Any
  6240 O6240     19.6589    16.2780    -8.6635 Any
  6241 H6241     20.2113    15.5082    -8.6292 Any
  6242 H6242     18.7744    15.9367    -8.6689 Any
  6243 O6243     -8.5822   -17.3524   -14.0994 Any
  6244 H6244     -8.0122   -16.9622   -14.7489 Any
  6245 H6245     -8.3110   -16.9624   -13.2789 Any
  6246 O6246     18.0766   -14.7956    14.1785 Any
  6247 H6247     17.8195   -13.8838    14.2142 Any
  6248 H6248     18.3708   -14.9257    13.2867 Any
  6249 O6249      3.7538     4.7843     2.5256 Any
  6250 H6250      4.6316     5.1280     2.4246 Any
  6251 H6251      3.7538     3.9792     2.0249 Any
  6252 O6252    -12.8778    18.5373    11.1748 Any
  6253 H6253    -13.7087    18.9934    11.1942 Any
  6254 H6254    -12.3882    18.9027    11.8999 Any
  6255 O6255    -13.2926    -5.1417     0.1042 Any
  6256 H6256    -14.0216    -4.5749    -0.1109 Any
  6257 H6257    -13.1135    -5.6146    -0.6978 Any
  6258 O6258     -7.8467   -14.1460    11.1305 Any
  6259 H6259     -7.8108   -13.9619    12.0598 Any
  6260 H6260     -7.6061   -15.0603    11.0590 Any
  6261 O6261     -1.3667    18.5187    17.7158 Any
  6262 H6262     -1.9851    18.9662    17.1535 Any
  6263 H6263     -0.5759    18.4540    17.1968 Any
  6264 O6264     -4.6089    11.0688     8.6262 Any
  6265 H6265     -4.1269    11.7627     8.1959 Any
  6266 H6266     -5.3774    10.9416     8.0857 Any
  6267 O6267     13.2365   -16.2859    -4.0940 Any
  6268 H6268     13.1391   -16.7049    -3.2491 Any
  6269 H6269     12.4047   -15.8566    -4.2446 Any
  6270 O6270    -14.9269   -13.8034    -5.9401 Any
  6271 H6271    -14.2182   -13.3888    -5.4660 Any
  6272 H6272    -15.0514   -14.6356    -5.5033 Any
  6273 O6273     -3.8235   -13.4543   -14.8345 Any
  6274 H6274     -3.6149   -13.3828   -15.7566 Any
  6275 H6275     -4.6661   -13.8885   -14.8136 Any
  6276 O6276     11.8568   -16.3228     5.8526 Any
  6277 H6277     11.0514   -16.1780     5.3738 Any
  6278 H6278     12.3841   -15.5563     5.6698 Any
  6279 O6279     13.6866     4.4864    -9.3763 Any
  6280 H6280     14.2498     4.2074    -8.6666 Any
  6281 H6281     13.5864     5.4205    -9.2481 Any
  6282 O6282      2.5656   -12.4390    -5.4342 Any
  6283 H6283      2.3398   -11.5615    -5.7135 Any
  6284 H6284      1.9703   -12.6223    -4.7194 Any
  6285 O6285      8.5860    -8.2767   -13.1449 Any
  6286 H6286      9.0100    -8.7638   -12.4507 Any
  6287 H6287      7.9213    -8.8652   -13.4776 Any
  6288 O6288     10.1310   -15.6879   -16.7423 Any
  6289 H6289      9.5609   -15.3739   -17.4317 Any
  6290 H6290      9.6892   -15.4465   -15.9389 Any
  6291 O6291    -11.5103   -14.3474     5.9291 Any
  6292 H6292    -11.4297   -14.5467     6.8525 Any
  6293 H6293    -12.1064   -15.0044     5.5945 Any
  6294 O6294    -19.4226    18.4181    16.0262 Any
  6295 H6295    -19.4173    18.8167    15.1660 Any
  6296 H6296    -18.9710    17.5927    15.9094 Any
  6297 O6297     12.3883    -8.2455    -5.9275 Any
  6298 H6298     11.9932    -9.0995    -5.8117 Any
  6299 H6299     11.7103    -7.6328    -5.6746 Any
  6300 O6300     -5.7012    12.2278    -5.6604 Any
  6301 H6301     -5.6310    11.4036    -6.1236 Any
  6302 H6302     -6.4892    12.6279    -6.0035 Any
  6303 O6303     -6.3922    -6.2498    -9.7757 Any
  6304 H6304     -6.5364    -5.5601    -9.1413 Any
  6305 H6305     -5.5051    -6.5422    -9.6126 Any
  6306 O6306     -8.8392     2.7924    16.3838 Any
  6307 H6307     -8.7856     3.6798    16.0542 Any
  6308 H6308     -9.6201     2.4355    15.9819 Any
  6309 O6309     11.2816   -18.6345     7.5178 Any
  6310 H6310     12.1323   -18.9814     7.7522 Any
  6311 H6311     11.3904   -18.3146     6.6320 Any
  6312 O6312     -3.7065    -6.8777    -9.0920 Any
  6313 H6313     -3.4506    -6.0494    -9.4757 Any
  6314 H6314     -2.9448    -7.4331    -9.1936 Any
  6315 O6315     -0.8391   -16.2129    -1.3023 Any
  6316 H6316     -0.2887   -16.4068    -2.0495 Any
  6317 H6317     -0.6913   -16.9333    -0.7039 Any
  6318 O6318      5.6760    -4.8921     2.5025 Any
  6319 H6319      5.3328    -4.0120     2.5835 Any
  6320 H6320      4.9205    -5.4539     2.6145 Any
  6321 O6321     -4.7225    -3.3651    11.0332 Any
  6322 H6322     -4.5458    -3.9260    11.7769 Any
  6323 H6323     -5.3212    -2.7096    11.3659 Any
  6324 O6324     14.5771    14.2237    -2.3671 Any
  6325 H6325     14.1004    14.3690    -1.5606 Any
  6326 H6326     14.5220    15.0499    -2.8289 Any
  6327 O6327     15.8770     0.1359    10.9253 Any
  6328 H6328     16.6607     0.4197    10.4735 Any
  6329 H6329     16.1608    -0.0287    11.8148 Any
  6330 O6330     18.1902     1.7133    14.7881 Any
  6331 H6331     18.6616     2.1153    14.0703 Any
  6332 H6332     18.2155     2.3594    15.4815 Any
  6333 O6333      2.0269     7.7240     9.5202 Any
  6334 H6334      1.5334     8.1760     8.8486 Any
  6335 H6335      2.8681     8.1610     9.5329 Any
  6336 O6336     -4.6867     5.0813    19.2448 Any
  6337 H6337     -5.1567     4.2610    19.1731 Any
  6338 H6338     -4.8712     5.5337    18.4323 Any
  6339 O6339     20.1643     0.3272     3.0715 Any
  6340 H6340     20.2067    -0.6082     2.9225 Any
  6341 H6341     19.2370     0.5210     3.1084 Any
  6342 O6342    -12.1542     1.9631    -0.7259 Any
  6343 H6343    -11.4373     2.1490    -0.1339 Any
  6344 H6344    -12.8683     2.5021    -0.4122 Any
  6345 O6345    -17.6598    -8.7030    14.7366 Any
  6346 H6346    -17.0147    -9.3291    15.0380 Any
  6347 H6347    -18.2061    -9.1936    14.1367 Any
  6348 O6348    -18.3252     7.3376     4.2355 Any
  6349 H6349    -17.9205     8.1171     4.5926 Any
  6350 H6350    -17.8837     7.1973     3.4082 Any
  6351 O6351     17.9645     5.3580    -1.2589 Any
  6352 H6352     17.2254     5.2644    -0.6725 Any
  6353 H6353     18.0409     6.2926    -1.3988 Any
  6354 O6354      4.0074    -5.2212    -4.1233 Any
  6355 H6355      3.3427    -4.6411    -3.7763 Any
  6356 H6356      4.7899    -4.6877    -4.1679 Any
  6357 O6357      4.7482   -12.3952     4.1383 Any
  6358 H6358      5.5561   -12.7841     3.8301 Any
  6359 H6359      4.7148   -11.5476     3.7147 Any
  6360 O6360      6.9131    -3.8614    -6.5215 Any
  6361 H6361      6.2452    -3.2425    -6.2575 Any
  6362 H6362      7.1744    -4.2882    -5.7162 Any
  6363 O6363    -19.4506    18.5286     9.1011 Any
  6364 H6364    -20.0716    17.8653     8.8304 Any
  6365 H6365    -18.6913    18.3823     8.5526 Any
  6366 O6366     -7.9704    -3.6764    -5.2256 Any
  6367 H6367     -7.0392    -3.6164    -5.3931 Any
  6368 H6368     -8.2909    -2.7915    -5.3403 Any
  6369 O6369      6.4181     2.1944     6.5973 Any
  6370 H6370      5.8510     2.3074     5.8459 Any
  6371 H6371      6.4848     3.0602     6.9780 Any
  6372 O6372    -10.7248    18.3010     3.6435 Any
  6373 H6373    -10.4962    19.0518     4.1754 Any
  6374 H6374    -10.3196    18.4715     2.8035 Any
  6375 O6375    -18.5725    -3.9336   -10.2469 Any
  6376 H6376    -18.0871    -3.6691    -9.4766 Any
  6377 H6377    -17.9386    -3.9007   -10.9511 Any
  6378 O6378     -3.3137    -3.2210    13.7049 Any
  6379 H6379     -3.9793    -2.5726    13.8932 Any
  6380 H6380     -3.0030    -2.9987    12.8371 Any
  6381 O6381     18.8756    14.4508    10.4396 Any
  6382 H6382     19.0346    14.4577    11.3743 Any
  6383 H6383     19.2911    13.6557    10.1329 Any
  6384 O6384      0.1053    12.4625     7.2721 Any
  6385 H6385     -0.3537    12.7047     6.4786 Any
  6386 H6386     -0.4307    12.8094     7.9730 Any
  6387 O6387     -7.6699     3.9105    -2.5927 Any
  6388 H6388     -8.4837     4.2394    -2.9512 Any
  6389 H6389     -7.6280     3.0093    -2.8842 Any
  6390 O6390     -1.6783     6.4355    -7.3845 Any
  6391 H6391     -2.0164     7.2578    -7.7140 Any
  6392 H6392     -1.3049     6.0095    -8.1447 Any
  6393 O6393    -14.6981    15.8178    14.3876 Any
  6394 H6394    -14.8823    16.7157    14.6302 Any
  6395 H6395    -13.9244    15.5900    14.8860 Any
  6396 O6396    -14.9366   -18.5787     4.0179 Any
  6397 H6397    -14.7085   -18.6534     3.1007 Any
  6398 H6398    -14.8138   -19.4521     4.3660 Any
  6399 O6399     -0.1652     8.1476   -19.1987 Any
  6400 H6400      0.6236     7.7352   -18.8723 Any
  6401 H6401     -0.7443     7.4256   -19.4042 Any
  6402 O6402     18.8083     9.6166    12.5558 Any
  6403 H6403     19.6041     9.5470    13.0664 Any
  6404 H6404     18.1178     9.6983    13.2004 Any
  6405 O6405     -0.8321    -3.2199     2.8996 Any
  6406 H6406     -1.5134    -2.6822     2.5181 Any
  6407 H6407     -0.1151    -3.1705     2.2813 Any
  6408 O6408     18.4146     9.3419    19.0071 Any
  6409 H6409     18.2201     8.7541    18.2891 Any
  6410 H6410     19.3576     9.4378    18.9880 Any
  6411 O6411      5.0467   -12.7642   -14.5404 Any
  6412 H6412      4.2128   -13.0754   -14.2138 Any
  6413 H6413      5.6921   -13.1956   -13.9960 Any
  6414 O6414     14.2398    12.0816    -9.6711 Any
  6415 H6415     14.0043    12.1281    -8.7538 Any
  6416 H6416     15.1136    11.7137    -9.6746 Any
@<TRIPOS>BOND
     0      2      1 1
     1      3      1 1
     2      5      4 1
     3      6      4 1
     4      8      7 1
     5      9      7 1
     6     11     10 1
     7     12     10 1
     8     14     13 1
     9     15     13 1
    10     17     16 1
    11     18     16 1
    12     20     19 1
    13     21     19 1
    14     23     22 1
    15     24     22 1
    16     26     25 1
    17     27     25 1
    18     29     28 1
    19     30     28 1
    20     32     31 1
    21     33     31 1
    22     35     34 1
    23     36     34 1
    24     38     37 1
    25     39     37 1
    26     41     40 1
    27     42     40 1
    28     44     43 1
    29     45     43 1
    30     47     46 1
    31     48     46 1
    32     50     49 1
    33     51     49 1
    34     53     52 1
    35     54     52 1
    36     56     55 1
    37     57     55 1
    38     59     58 1
    39     60     58 1
    40     62     61 1
    41     63     61 1
    42     65     64 1
    43     66     64 1
    44     68     67 1
    45     69     67 1
    46     71     70 1
    47     72     70 1
    48     74     73 1
    49     75     73 1
    50     77     76 1
    51     78     76 1
    52     80     79 1
    53     81     79 1
    54     83     82 1
    55     84     82 1
    56     86     85 1
    57     87     85 1
    58     89     88 1
    59     90     88 1
    60     92     91 1
    61     93     91 1
    62     95     94 1
    63     96     94 1
    64     98     97 1
    65     99     97 1
    66    101    100 1
    67    102    100 1
    68    104    103 1
    69    105    103 1
    70    107    106 1
    71    108    106 1
    72    110    109 1
    73    111    109 1
    74    113    112 1
    75    114    112 1
    76    116    115 1
    77    117    115 1
    78    119    118 1
    79    120    118 1
    80    122    121 1
    81    123    121 1
    82    125    124 1
    83    126    124 1
    84    128    127 1
    85    129    127 1
    86    131    130 1
    87    132    130 1
    88    134    133 1
    89    135    133 1
    90    137    136 1
    91    138    136 1
    92    140    139 1
    93    141    139 1
    94    143    142 1
    95    144    142 1
    96    146    145 1
    97    147    145 1
    98    149    148 1
    99    150    148 1
   100    152    151 1
   101    153    151 1
   102    155    154 1
   103    156    154 1
   104    158    157 1
   105    159    157 1
   106    161    160 1
   107    162    160 1
   108    164    163 1
   109    165    163 1
   110    167    166 1
   111    168    166 1
   112    170    169 1
   113    171    169 1
   114    173    172 1
   115    174    172 1
   116    176    175 1
   117    177    175 1
   118    179    178 1
   119    180    178 1
   120    182    181 1
   121    183    181 1
   122    185    184 1
   123    186    184 1
   124    188    187 1
   125    189    187 1
   126    191    190 1
   127    192    190 1
   128    194    193 1
   129    195    193 1
   130    197    196 1
   131    198    196 1
   132    200    199 1
   133    201    199 1
   134    203    202 1
   135    204    202 1
   136    206    205 1
   137    207    205 1
   138    209    208 1
   139    210    208 1
   140    212    211 1
   141    213    211 1
   142    215    214 1
   143    216    214 1
   144    218    217 1
   145    219    217 1
   146    221    220 1
   147    222    220 1
   148    224    223 1
   149    225    223 1
   150    227    226 1
   151    228    226 1
   152    230    229 1
   153    231    229 1
   154    233    232 1
   155    234    232 1
   156    236    235 1
   157    237    235 1
   158    239    238 1
   159    240    238 1
   160    242    241 1
   161    243    241 1
   162    245    244 1
   163    246    244 1
   164    248    247 1
   165    249    247 1
   166    251    250 1
   167    252    250 1
   168    254    253 1
   169    255    253 1
   170    257    256 1
   171    258    256 1
   172    260    259 1
   173    261    259 1
   174    263    262 1
   175    264    262 1
   176    266    265 1
   177    267    265 1
   178    269    268 1
   179    270    268 1
   180    272    271 1
   181    273    271 1
   182    275    274 1
   183    276    274 1
   184    278    277 1
   185    279    277 1
   186    281    280 1
   187    282    280 1
   188    284    283 1
   189    285    283 1
   190    287    286 1
   191    288    286 1
   192    290    289 1
   193    291    289 1
   194    293    292 1
   195    294    292 1
   196    296    295 1
   197    297    295 1
   198    299    298 1
   199    300    298 1
   200    302    301 1
   201    303    301 1
   202    305    304 1
   203    306    304 1
   204    308    307 1
   205    309    307 1
   206    311    310 1
   207    312    310 1
   208    314    313 1
   209    315    313 1
   210    317    316 1
   211    318    316 1
   212    320    319 1
   213    321    319 1
   214    323    322 1
   215    324    322 1
   216    326    325 1
   217    327    325 1
   218    329    328 1
   219    330    328 1
   220    332    331 1
   221    333    331 1
   222    335    334 1
   223    336    334 1
   224    338    337 1
   225    339    337 1
   226    341    340 1
   227    342    340 1
   228    344    343 1
   229    345    343 1
   230    347    346 1
   231    348    346 1
   232    350    349 1
   233    351    349 1
   234    353    352 1
   235    354    352 1
   236    356    355 1
   237    357    355 1
   238    359    358 1
   239    360    358 1
   240    362    361 1
   241    363    361 1
   242    365    364 1
   243    366    364 1
   244    368    367 1
   245    369    367 1
   246    371    370 1
   247    372    370 1
   248    374    373 1
   249    375    373 1
   250    377    376 1
   251    378    376 1
   252    380    379 1
   253    381    379 1
   254    383    382 1
   255    384    382 1
   256    386    385 1
   257    387    385 1
   258    389    388 1
   259    390    388 1
   260    392    391 1
   261    393    391 1
   262    395    394 1
   263    396    394 1
   264    398    397 1
   265    399    397 1
   266    401    400 1
   267    402    400 1
   268    404    403 1
   269    405    403 1
   270    407    406 1
   271    408    406 1
   272    410    409 1
   273    411    409 1
   274    413    412 1
   275    414    412 1
   276    416    415 1
   277    417    415 1
   278    419    418 1
   279    420    418 1
   280    422    421 1
   281    423    421 1
   282    425    424 1
   283    426    424 1
   284    428    427 1
   285    429    427 1
   286    431    430 1
   287    432    430 1
   288    434    433 1
   289    435    433 1
   290    437    436 1
   291    438    436 1
   292    440    439 1
   293    441    439 1
   294    443    442 1
   295    444    442 1
   296    446    445 1
   297    447    445 1
   298    449    448 1
   299    450    448 1
   300    452    451 1
   301    453    451 1
   302    455    454 1
   303    456    454 1
   304    458    457 1
   305    459    457 1
   306    461    460 1
   307    462    460 1
   308    464    463 1
   309    465    463 1
   310    467    466 1
   311    468    466 1
   312    470    469 1
   313    471    469 1
   314    473    472 1
   315    474    472 1
   316    476    475 1
   317    477    475 1
   318    479    478 1
   319    480    478 1
   320    482    481 1
   321    483    481 1
   322    485    484 1
   323    486    484 1
   324    488    487 1
   325    489    487 1
   326    491    490 1
   327    492    490 1
   328    494    493 1
   329    495    493 1
   330    497    496 1
   331    498    496 1
   332    500    499 1
   333    501    499 1
   334    503    502 1
   335    504    502 1
   336    506    505 1
   337    507    505 1
   338    509    508 1
   339    510    508 1
   340    512    511 1
   341    513    511 1
   342    515    514 1
   343    516    514 1
   344    518    517 1
   345    519    517 1
   346    521    520 1
   347    522    520 1
   348    524    523 1
   349    525    523 1
   350    527    526 1
   351    528    526 1
   352    530    529 1
   353    531    529 1
   354    533    532 1
   355    534    532 1
   356    536    535 1
   357    537    535 1
   358    539    538 1
   359    540    538 1
   360    542    541 1
   361    543    541 1
   362    545    544 1
   363    546    544 1
   364    548    547 1
   365    549    547 1
   366    551    550 1
   367    552    550 1
   368    554    553 1
   369    555    553 1
   370    557    556 1
   371    558    556 1
   372    560    559 1
   373    561    559 1
   374    563    562 1
   375    564    562 1
   376    566    565 1
   377    567    565 1
   378    569    568 1
   379    570    568 1
   380    572    571 1
   381    573    571 1
   382    575    574 1
   383    576    574 1
   384    578    577 1
   385    579    577 1
   386    581    580 1
   387    582    580 1
   388    584    583 1
   389    585    583 1
   390    587    586 1
   391    588    586 1
   392    590    589 1
   393    591    589 1
   394    593    592 1
   395    594    592 1
   396    596    595 1
   397    597    595 1
   398    599    598 1
   399    600    598 1
   400    602    601 1
   401    603    601 1
   402    605    604 1
   403    606    604 1
   404    608    607 1
   405    609    607 1
   406    611    610 1
   407    612    610 1
   408    614    613 1
   409    615    613 1
   410    617    616 1
   411    618    616 1
   412    620    619 1
   413    621    619 1
   414    623    622 1
   415    624    622 1
   416    626    625 1
   417    627    625 1
   418    629    628 1
   419    630    628 1
   420    632    631 1
   421    633    631 1
   422    635    634 1
   423    636    634 1
   424    638    637 1
   425    639    637 1
   426    641    640 1
   427    642    640 1
   428    644    643 1
   429    645    643 1
   430    647    646 1
   431    648    646 1
   432    650    649 1
   433    651    649 1
   434    653    652 1
   435    654    652 1
   436    656    655 1
   437    657    655 1
   438    659    658 1
   439    660    658 1
   440    662    661 1
   441    663    661 1
   442    665    664 1
   443    666    664 1
   444    668    667 1
   445    669    667 1
   446    671    670 1
   447    672    670 1
   448    674    673 1
   449    675    673 1
   450    677    676 1
   451    678    676 1
   452    680    679 1
   453    681    679 1
   454    683    682 1
   455    684    682 1
   456    686    685 1
   457    687    685 1
   458    689    688 1
   459    690    688 1
   460    692    691 1
   461    693    691 1
   462    695    694 1
   463    696    694 1
   464    698    697 1
   465    699    697 1
   466    701    700 1
   467    702    700 1
   468    704    703 1
   469    705    703 1
   470    707    706 1
   471    708    706 1
   472    710    709 1
   473    711    709 1
   474    713    712 1
   475    714    712 1
   476    716    715 1
   477    717    715 1
   478    719    718 1
   479    720    718 1
   480    722    721 1
   481    723    721 1
   482    725    724 1
   483    726    724 1
   484    728    727 1
   485    729    727 1
   486    731    730 1
   487    732    730 1
   488    734    733 1
   489    735    733 1
   490    737    736 1
   491    738    736 1
   492    740    739 1
   493    741    739 1
   494    743    742 1
   495    744    742 1
   496    746    745 1
   497    747    745 1
   498    749    748 1
   499    750    748 1
   500    752    751 1
   501    753    751 1
   502    755    754 1
   503    756    754 1
   504    758    757 1
   505    759    757 1
   506    761    760 1
   507    762    760 1
   508    764    763 1
   509    765    763 1
   510    767    766 1
   511    768    766 1
   512    770    769 1
   513    771    769 1
   514    773    772 1
   515    774    772 1
   516    776    775 1
   517    777    775 1
   518    779    778 1
   519    780    778 1
   520    782    781 1
   521    783    781 1
   522    785    784 1
   523    786    784 1
   524    788    787 1
   525    789    787 1
   526    791    790 1
   527    792    790 1
   528    794    793 1
   529    795    793 1
   530    797    796 1
   531    798    796 1
   532    800    799 1
   533    801    799 1
   534    803    802 1
   535    804    802 1
   536    806    805 1
   537    807    805 1
   538    809    808 1
   539    810    808 1
   540    812    811 1
   541    813    811 1
   542    815    814 1
   543    816    814 1
   544    818    817 1
   545    819    817 1
   546    821    820 1
   547    822    820 1
   548    824    823 1
   549    825    823 1
   550    827    826 1
   551    828    826 1
   552    830    829 1
   553    831    829 1
   554    833    832 1
   555    834    832 1
   556    836    835 1
   557    837    835 1
   558    839    838 1
   559    840    838 1
   560    842    841 1
   561    843    841 1
   562    845    844 1
   563    846    844 1
   564    848    847 1
   565    849    847 1
   566    851    850 1
   567    852    850 1
   568    854    853 1
   569    855    853 1
   570    857    856 1
   571    858    856 1
   572    860    859 1
   573    861    859 1
   574    863    862 1
   575    864    862 1
   576    866    865 1
   577    867    865 1
   578    869    868 1
   579    870    868 1
   580    872    871 1
   581    873    871 1
   582    875    874 1
   583    876    874 1
   584    878    877 1
   585    879    877 1
   586    881    880 1
   587    882    880 1
   588    884    883 1
   589    885    883 1
   590    887    886 1
   591    888    886 1
   592    890    889 1
   593    891    889 1
   594    893    892 1
   595    894    892 1
   596    896    895 1
   597    897    895 1
   598    899    898 1
   599    900    898 1
   600    902    901 1
   601    903    901 1
   602    905    904 1
   603    906    904 1
   604    908    907 1
   605    909    907 1
   606    911    910 1
   607    912    910 1
   608    914    913 1
   609    915    913 1
   610    917    916 1
   611    918    916 1
   612    920    919 1
   613    921    919 1
   614    923    922 1
   615    924    922 1
   616    926    925 1
   617    927    925 1
   618    929    928 1
   619    930    928 1
   620    932    931 1
   621    933    931 1
   622    935    934 1
   623    936    934 1
   624    938    937 1
   625    939    937 1
   626    941    940 1
   627    942    940 1
   628    944    943 1
   629    945    943 1
   630    947    946 1
   631    948    946 1
   632    950    949 1
   633    951    949 1
   634    953    952 1
   635    954    952 1
   636    956    955 1
   637    957    955 1
   638    959    958 1
   639    960    958 1
   640    962    961 1
   641    963    961 1
   642    965    964 1
   643    966    964 1
   644    968    967 1
   645    969    967 1
   646    971    970 1
   647    972    970 1
   648    974    973 1
   649    975    973 1
   650    977    976 1
   651    978    976 1
   652    980    979 1
   653    981    979 1
   654    983    982 1
   655    984    982 1
   656    986    985 1
   657    987    985 1
   658    989    988 1
   659    990    988 1
   660    992    991 1
   661    993    991 1
   662    995    994 1
   663    996    994 1
   664    998    997 1
   665    999    997 1
   666   1001   1000 1
   667   1002   1000 1
   668   1004   1003 1
   669   1005   1003 1
   670   1007   1006 1
   671   1008   1006 1
   672   1010   1009 1
   673   1011   1009 1
   674   1013   1012 1
   675   1014   1012 1
   676   1016   1015 1
   677   1017   1015 1
   678   1019   1018 1
   679   1020   1018 1
   680   1022   1021 1
   681   1023   1021 1
   682   1025   1024 1
   683   1026   1024 1
   684   1028   1027 1
   685   1029   1027 1
   686   1031   1030 1
   687   1032   1030 1
   688   1034   1033 1
   689   1035   1033 1
   690   1037   1036 1
   691   1038   1036 1
   692   1040   1039 1
   693   1041   1039 1
   694   1043   1042 1
   695   1044   1042 1
   696   1046   1045 1
   697   1047   1045 1
   698   1049   1048 1
   699   1050   1048 1
   700   1052   1051 1
   701   1053   1051 1
   702   1055   1054 1
   703   1056   1054 1
   704   1058   1057 1
   705   1059   1057 1
   706   1061   1060 1
   707   1062   1060 1
   708   1064   1063 1
   709   1065   1063 1
   710   1067   1066 1
   711   1068   1066 1
   712   1070   1069 1
   713   1071   1069 1
   714   1073   1072 1
   715   1074   1072 1
   716   1076   1075 1
   717   1077   1075 1
   718   1079   1078 1
   719   1080   1078 1
   720   1082   1081 1
   721   1083   1081 1
   722   1085   1084 1
   723   1086   1084 1
   724   1088   1087 1
   725   1089   1087 1
   726   1091   1090 1
   727   1092   1090 1
   728   1094   1093 1
   729   1095   1093 1
   730   1097   1096 1
   731   1098   1096 1
   732   1100   1099 1
   733   1101   1099 1
   734   1103   1102 1
   735   1104   1102 1
   736   1106   1105 1
   737   1107   1105 1
   738   1109   1108 1
   739   1110   1108 1
   740   1112   1111 1
   741   1113   1111 1
   742   1115   1114 1
   743   1116   1114 1
   744   1118   1117 1
   745   1119   1117 1
   746   1121   1120 1
   747   1122   1120 1
   748   1124   1123 1
   749   1125   1123 1
   750   1127   1126 1
   751   1128   1126 1
   752   1130   1129 1
   753   1131   1129 1
   754   1133   1132 1
   755   1134   1132 1
   756   1136   1135 1
   757   1137   1135 1
   758   1139   1138 1
   759   1140   1138 1
   760   1142   1141 1
   761   1143   1141 1
   762   1145   1144 1
   763   1146   1144 1
   764   1148   1147 1
   765   1149   1147 1
   766   1151   1150 1
   767   1152   1150 1
   768   1154   1153 1
   769   1155   1153 1
   770   1157   1156 1
   771   1158   1156 1
   772   1160   1159 1
   773   1161   1159 1
   774   1163   1162 1
   775   1164   1162 1
   776   1166   1165 1
   777   1167   1165 1
   778   1169   1168 1
   779   1170   1168 1
   780   1172   1171 1
   781   1173   1171 1
   782   1175   1174 1
   783   1176   1174 1
   784   1178   1177 1
   785   1179   1177 1
   786   1181   1180 1
   787   1182   1180 1
   788   1184   1183 1
   789   1185   1183 1
   790   1187   1186 1
   791   1188   1186 1
   792   1190   1189 1
   793   1191   1189 1
   794   1193   1192 1
   795   1194   1192 1
   796   1196   1195 1
   797   1197   1195 1
   798   1199   1198 1
   799   1200   1198 1
   800   1202   1201 1
   801   1203   1201 1
   802   1205   1204 1
   803   1206   1204 1
   804   1208   1207 1
   805   1209   1207 1
   806   1211   1210 1
   807   1212   1210 1
   808   1214   1213 1
   809   1215   1213 1
   810   1217   1216 1
   811   1218   1216 1
   812   1220   1219 1
   813   1221   1219 1
   814   1223   1222 1
   815   1224   1222 1
   816   1226   1225 1
   817   1227   1225 1
   818   1229   1228 1
   819   1230   1228 1
   820   1232   1231 1
   821   1233   1231 1
   822   1235   1234 1
   823   1236   1234 1
   824   1238   1237 1
   825   1239   1237 1
   826   1241   1240 1
   827   1242   1240 1
   828   1244   1243 1
   829   1245   1243 1
   830   1247   1246 1
   831   1248   1246 1
   832   1250   1249 1
   833   1251   1249 1
   834   1253   1252 1
   835   1254   1252 1
   836   1256   1255 1
   837   1257   1255 1
   838   1259   1258 1
   839   1260   1258 1
   840   1262   1261 1
   841   1263   1261 1
   842   1265   1264 1
   843   1266   1264 1
   844   1268   1267 1
   845   1269   1267 1
   846   1271   1270 1
   847   1272   1270 1
   848   1274   1273 1
   849   1275   1273 1
   850   1277   1276 1
   851   1278   1276 1
   852   1280   1279 1
   853   1281   1279 1
   854   1283   1282 1
   855   1284   1282 1
   856   1286   1285 1
   857   1287   1285 1
   858   1289   1288 1
   859   1290   1288 1
   860   1292   1291 1
   861   1293   1291 1
   862   1295   1294 1
   863   1296   1294 1
   864   1298   1297 1
   865   1299   1297 1
   866   1301   1300 1
   867   1302   1300 1
   868   1304   1303 1
   869   1305   1303 1
   870   1307   1306 1
   871   1308   1306 1
   872   1310   1309 1
   873   1311   1309 1
   874   1313   1312 1
   875   1314   1312 1
   876   1316   1315 1
   877   1317   1315 1
   878   1319   1318 1
   879   1320   1318 1
   880   1322   1321 1
   881   1323   1321 1
   882   1325   1324 1
   883   1326   1324 1
   884   1328   1327 1
   885   1329   1327 1
   886   1331   1330 1
   887   1332   1330 1
   888   1334   1333 1
   889   1335   1333 1
   890   1337   1336 1
   891   1338   1336 1
   892   1340   1339 1
   893   1341   1339 1
   894   1343   1342 1
   895   1344   1342 1
   896   1346   1345 1
   897   1347   1345 1
   898   1349   1348 1
   899   1350   1348 1
   900   1352   1351 1
   901   1353   1351 1
   902   1355   1354 1
   903   1356   1354 1
   904   1358   1357 1
   905   1359   1357 1
   906   1361   1360 1
   907   1362   1360 1
   908   1364   1363 1
   909   1365   1363 1
   910   1367   1366 1
   911   1368   1366 1
   912   1370   1369 1
   913   1371   1369 1
   914   1373   1372 1
   915   1374   1372 1
   916   1376   1375 1
   917   1377   1375 1
   918   1379   1378 1
   919   1380   1378 1
   920   1382   1381 1
   921   1383   1381 1
   922   1385   1384 1
   923   1386   1384 1
   924   1388   1387 1
   925   1389   1387 1
   926   1391   1390 1
   927   1392   1390 1
   928   1394   1393 1
   929   1395   1393 1
   930   1397   1396 1
   931   1398   1396 1
   932   1400   1399 1
   933   1401   1399 1
   934   1403   1402 1
   935   1404   1402 1
   936   1406   1405 1
   937   1407   1405 1
   938   1409   1408 1
   939   1410   1408 1
   940   1412   1411 1
   941   1413   1411 1
   942   1415   1414 1
   943   1416   1414 1
   944   1418   1417 1
   945   1419   1417 1
   946   1421   1420 1
   947   1422   1420 1
   948   1424   1423 1
   949   1425   1423 1
   950   1427   1426 1
   951   1428   1426 1
   952   1430   1429 1
   953   1431   1429 1
   954   1433   1432 1
   955   1434   1432 1
   956   1436   1435 1
   957   1437   1435 1
   958   1439   1438 1
   959   1440   1438 1
   960   1442   1441 1
   961   1443   1441 1
   962   1445   1444 1
   963   1446   1444 1
   964   1448   1447 1
   965   1449   1447 1
   966   1451   1450 1
   967   1452   1450 1
   968   1454   1453 1
   969   1455   1453 1
   970   1457   1456 1
   971   1458   1456 1
   972   1460   1459 1
   973   1461   1459 1
   974   1463   1462 1
   975   1464   1462 1
   976   1466   1465 1
   977   1467   1465 1
   978   1469   1468 1
   979   1470   1468 1
   980   1472   1471 1
   981   1473   1471 1
   982   1475   1474 1
   983   1476   1474 1
   984   1478   1477 1
   985   1479   1477 1
   986   1481   1480 1
   987   1482   1480 1
   988   1484   1483 1
   989   1485   1483 1
   990   1487   1486 1
   991   1488   1486 1
   992   1490   1489 1
   993   1491   1489 1
   994   1493   1492 1
   995   1494   1492 1
   996   1496   1495 1
   997   1497   1495 1
   998   1499   1498 1
   999   1500   1498 1
  1000   1502   1501 1
  1001   1503   1501 1
  1002   1505   1504 1
  1003   1506   1504 1
  1004   1508   1507 1
  1005   1509   1507 1
  1006   1511   1510 1
  1007   1512   1510 1
  1008   1514   1513 1
  1009   1515   1513 1
  1010   1517   1516 1
  1011   1518   1516 1
  1012   1520   1519 1
  1013   1521   1519 1
  1014   1523   1522 1
  1015   1524   1522 1
  1016   1526   1525 1
  1017   1527   1525 1
  1018   1529   1528 1
  1019   1530   1528 1
  1020   1532   1531 1
  1021   1533   1531 1
  1022   1535   1534 1
  1023   1536   1534 1
  1024   1538   1537 1
  1025   1539   1537 1
  1026   1541   1540 1
  1027   1542   1540 1
  1028   1544   1543 1
  1029   1545   1543 1
  1030   1547   1546 1
  1031   1548   1546 1
  1032   1550   1549 1
  1033   1551   1549 1
  1034   1553   1552 1
  1035   1554   1552 1
  1036   1556   1555 1
  1037   1557   1555 1
  1038   1559   1558 1
  1039   1560   1558 1
  1040   1562   1561 1
  1041   1563   1561 1
  1042   1565   1564 1
  1043   1566   1564 1
  1044   1568   1567 1
  1045   1569   1567 1
  1046   1571   1570 1
  1047   1572   1570 1
  1048   1574   1573 1
  1049   1575   1573 1
  1050   1577   1576 1
  1051   1578   1576 1
  1052   1580   1579 1
  1053   1581   1579 1
  1054   1583   1582 1
  1055   1584   1582 1
  1056   1586   1585 1
  1057   1587   1585 1
  1058   1589   1588 1
  1059   1590   1588 1
  1060   1592   1591 1
  1061   1593   1591 1
  1062   1595   1594 1
  1063   1596   1594 1
  1064   1598   1597 1
  1065   1599   1597 1
  1066   1601   1600 1
  1067   1602   1600 1
  1068   1604   1603 1
  1069   1605   1603 1
  1070   1607   1606 1
  1071   1608   1606 1
  1072   1610   1609 1
  1073   1611   1609 1
  1074   1613   1612 1
  1075   1614   1612 1
  1076   1616   1615 1
  1077   1617   1615 1
  1078   1619   1618 1
  1079   1620   1618 1
  1080   1622   1621 1
  1081   1623   1621 1
  1082   1625   1624 1
  1083   1626   1624 1
  1084   1628   1627 1
  1085   1629   1627 1
  1086   1631   1630 1
  1087   1632   1630 1
  1088   1634   1633 1
  1089   1635   1633 1
  1090   1637   1636 1
  1091   1638   1636 1
  1092   1640   1639 1
  1093   1641   1639 1
  1094   1643   1642 1
  1095   1644   1642 1
  1096   1646   1645 1
  1097   1647   1645 1
  1098   1649   1648 1
  1099   1650   1648 1
  1100   1652   1651 1
  1101   1653   1651 1
  1102   1655   1654 1
  1103   1656   1654 1
  1104   1658   1657 1
  1105   1659   1657 1
  1106   1661   1660 1
  1107   1662   1660 1
  1108   1664   1663 1
  1109   1665   1663 1
  1110   1667   1666 1
  1111   1668   1666 1
  1112   1670   1669 1
  1113   1671   1669 1
  1114   1673   1672 1
  1115   1674   1672 1
  1116   1676   1675 1
  1117   1677   1675 1
  1118   1679   1678 1
  1119   1680   1678 1
  1120   1682   1681 1
  1121   1683   1681 1
  1122   1685   1684 1
  1123   1686   1684 1
  1124   1688   1687 1
  1125   1689   1687 1
  1126   1691   1690 1
  1127   1692   1690 1
  1128   1694   1693 1
  1129   1695   1693 1
  1130   1697   1696 1
  1131   1698   1696 1
  1132   1700   1699 1
  1133   1701   1699 1
  1134   1703   1702 1
  1135   1704   1702 1
  1136   1706   1705 1
  1137   1707   1705 1
  1138   1709   1708 1
  1139   1710   1708 1
  1140   1712   1711 1
  1141   1713   1711 1
  1142   1715   1714 1
  1143   1716   1714 1
  1144   1718   1717 1
  1145   1719   1717 1
  1146   1721   1720 1
  1147   1722   1720 1
  1148   1724   1723 1
  1149   1725   1723 1
  1150   1727   1726 1
  1151   1728   1726 1
  1152   1730   1729 1
  1153   1731   1729 1
  1154   1733   1732 1
  1155   1734   1732 1
  1156   1736   1735 1
  1157   1737   1735 1
  1158   1739   1738 1
  1159   1740   1738 1
  1160   1742   1741 1
  1161   1743   1741 1
  1162   1745   1744 1
  1163   1746   1744 1
  1164   1748   1747 1
  1165   1749   1747 1
  1166   1751   1750 1
  1167   1752   1750 1
  1168   1754   1753 1
  1169   1755   1753 1
  1170   1757   1756 1
  1171   1758   1756 1
  1172   1760   1759 1
  1173   1761   1759 1
  1174   1763   1762 1
  1175   1764   1762 1
  1176   1766   1765 1
  1177   1767   1765 1
  1178   1769   1768 1
  1179   1770   1768 1
  1180   1772   1771 1
  1181   1773   1771 1
  1182   1775   1774 1
  1183   1776   1774 1
  1184   1778   1777 1
  1185   1779   1777 1
  1186   1781   1780 1
  1187   1782   1780 1
  1188   1784   1783 1
  1189   1785   1783 1
  1190   1787   1786 1
  1191   1788   1786 1
  1192   1790   1789 1
  1193   1791   1789 1
  1194   1793   1792 1
  1195   1794   1792 1
  1196   1796   1795 1
  1197   1797   1795 1
  1198   1799   1798 1
  1199   1800   1798 1
  1200   1802   1801 1
  1201   1803   1801 1
  1202   1805   1804 1
  1203   1806   1804 1
  1204   1808   1807 1
  1205   1809   1807 1
  1206   1811   1810 1
  1207   1812   1810 1
  1208   1814   1813 1
  1209   1815   1813 1
  1210   1817   1816 1
  1211   1818   1816 1
  1212   1820   1819 1
  1213   1821   1819 1
  1214   1823   1822 1
  1215   1824   1822 1
  1216   1826   1825 1
  1217   1827   1825 1
  1218   1829   1828 1
  1219   1830   1828 1
  1220   1832   1831 1
  1221   1833   1831 1
  1222   1835   1834 1
  1223   1836   1834 1
  1224   1838   1837 1
  1225   1839   1837 1
  1226   1841   1840 1
  1227   1842   1840 1
  1228   1844   1843 1
  1229   1845   1843 1
  1230   1847   1846 1
  1231   1848   1846 1
  1232   1850   1849 1
  1233   1851   1849 1
  1234   1853   1852 1
  1235   1854   1852 1
  1236   1856   1855 1
  1237   1857   1855 1
  1238   1859   1858 1
  1239   1860   1858 1
  1240   1862   1861 1
  1241   1863   1861 1
  1242   1865   1864 1
  1243   1866   1864 1
  1244   1868   1867 1
  1245   1869   1867 1
  1246   1871   1870 1
  1247   1872   1870 1
  1248   1874   1873 1
  1249   1875   1873 1
  1250   1877   1876 1
  1251   1878   1876 1
  1252   1880   1879 1
  1253   1881   1879 1
  1254   1883   1882 1
  1255   1884   1882 1
  1256   1886   1885 1
  1257   1887   1885 1
  1258   1889   1888 1
  1259   1890   1888 1
  1260   1892   1891 1
  1261   1893   1891 1
  1262   1895   1894 1
  1263   1896   1894 1
  1264   1898   1897 1
  1265   1899   1897 1
  1266   1901   1900 1
  1267   1902   1900 1
  1268   1904   1903 1
  1269   1905   1903 1
  1270   1907   1906 1
  1271   1908   1906 1
  1272   1910   1909 1
  1273   1911   1909 1
  1274   1913   1912 1
  1275   1914   1912 1
  1276   1916   1915 1
  1277   1917   1915 1
  1278   1919   1918 1
  1279   1920   1918 1
  1280   1922   1921 1
  1281   1923   1921 1
  1282   1925   1924 1
  1283   1926   1924 1
  1284   1928   1927 1
  1285   1929   1927 1
  1286   1931   1930 1
  1287   1932   1930 1
  1288   1934   1933 1
  1289   1935   1933 1
  1290   1937   1936 1
  1291   1938   1936 1
  1292   1940   1939 1
  1293   1941   1939 1
  1294   1943   1942 1
  1295   1944   1942 1
  1296   1946   1945 1
  1297   1947   1945 1
  1298   1949   1948 1
  1299   1950   1948 1
  1300   1952   1951 1
  1301   1953   1951 1
  1302   1955   1954 1
  1303   1956   1954 1
  1304   1958   1957 1
  1305   1959   1957 1
  1306   1961   1960 1
  1307   1962   1960 1
  1308   1964   1963 1
  1309   1965   1963 1
  1310   1967   1966 1
  1311   1968   1966 1
  1312   1970   1969 1
  1313   1971   1969 1
  1314   1973   1972 1
  1315   1974   1972 1
  1316   1976   1975 1
  1317   1977   1975 1
  1318   1979   1978 1
  1319   1980   1978 1
  1320   1982   1981 1
  1321   1983   1981 1
  1322   1985   1984 1
  1323   1986   1984 1
  1324   1988   1987 1
  1325   1989   1987 1
  1326   1991   1990 1
  1327   1992   1990 1
  1328   1994   1993 1
  1329   1995   1993 1
  1330   1997   1996 1
  1331   1998   1996 1
  1332   2000   1999 1
  1333   2001   1999 1
  1334   2003   2002 1
  1335   2004   2002 1
  1336   2006   2005 1
  1337   2007   2005 1
  1338   2009   2008 1
  1339   2010   2008 1
  1340   2012   2011 1
  1341   2013   2011 1
  1342   2015   2014 1
  1343   2016   2014 1
  1344   2018   2017 1
  1345   2019   2017 1
  1346   2021   2020 1
  1347   2022   2020 1
  1348   2024   2023 1
  1349   2025   2023 1
  1350   2027   2026 1
  1351   2028   2026 1
  1352   2030   2029 1
  1353   2031   2029 1
  1354   2033   2032 1
  1355   2034   2032 1
  1356   2036   2035 1
  1357   2037   2035 1
  1358   2039   2038 1
  1359   2040   2038 1
  1360   2042   2041 1
  1361   2043   2041 1
  1362   2045   2044 1
  1363   2046   2044 1
  1364   2048   2047 1
  1365   2049   2047 1
  1366   2051   2050 1
  1367   2052   2050 1
  1368   2054   2053 1
  1369   2055   2053 1
  1370   2057   2056 1
  1371   2058   2056 1
  1372   2060   2059 1
  1373   2061   2059 1
  1374   2063   2062 1
  1375   2064   2062 1
  1376   2066   2065 1
  1377   2067   2065 1
  1378   2069   2068 1
  1379   2070   2068 1
  1380   2072   2071 1
  1381   2073   2071 1
  1382   2075   2074 1
  1383   2076   2074 1
  1384   2078   2077 1
  1385   2079   2077 1
  1386   2081   2080 1
  1387   2082   2080 1
  1388   2084   2083 1
  1389   2085   2083 1
  1390   2087   2086 1
  1391   2088   2086 1
  1392   2090   2089 1
  1393   2091   2089 1
  1394   2093   2092 1
  1395   2094   2092 1
  1396   2096   2095 1
  1397   2097   2095 1
  1398   2099   2098 1
  1399   2100   2098 1
  1400   2102   2101 1
  1401   2103   2101 1
  1402   2105   2104 1
  1403   2106   2104 1
  1404   2108   2107 1
  1405   2109   2107 1
  1406   2111   2110 1
  1407   2112   2110 1
  1408   2114   2113 1
  1409   2115   2113 1
  1410   2117   2116 1
  1411   2118   2116 1
  1412   2120   2119 1
  1413   2121   2119 1
  1414   2123   2122 1
  1415   2124   2122 1
  1416   2126   2125 1
  1417   2127   2125 1
  1418   2129   2128 1
  1419   2130   2128 1
  1420   2132   2131 1
  1421   2133   2131 1
  1422   2135   2134 1
  1423   2136   2134 1
  1424   2138   2137 1
  1425   2139   2137 1
  1426   2141   2140 1
  1427   2142   2140 1
  1428   2144   2143 1
  1429   2145   2143 1
  1430   2147   2146 1
  1431   2148   2146 1
  1432   2150   2149 1
  1433   2151   2149 1
  1434   2153   2152 1
  1435   2154   2152 1
  1436   2156   2155 1
  1437   2157   2155 1
  1438   2159   2158 1
  1439   2160   2158 1
  1440   2162   2161 1
  1441   2163   2161 1
  1442   2165   2164 1
  1443   2166   2164 1
  1444   2168   2167 1
  1445   2169   2167 1
  1446   2171   2170 1
  1447   2172   2170 1
  1448   2174   2173 1
  1449   2175   2173 1
  1450   2177   2176 1
  1451   2178   2176 1
  1452   2180   2179 1
  1453   2181   2179 1
  1454   2183   2182 1
  1455   2184   2182 1
  1456   2186   2185 1
  1457   2187   2185 1
  1458   2189   2188 1
  1459   2190   2188 1
  1460   2192   2191 1
  1461   2193   2191 1
  1462   2195   2194 1
  1463   2196   2194 1
  1464   2198   2197 1
  1465   2199   2197 1
  1466   2201   2200 1
  1467   2202   2200 1
  1468   2204   2203 1
  1469   2205   2203 1
  1470   2207   2206 1
  1471   2208   2206 1
  1472   2210   2209 1
  1473   2211   2209 1
  1474   2213   2212 1
  1475   2214   2212 1
  1476   2216   2215 1
  1477   2217   2215 1
  1478   2219   2218 1
  1479   2220   2218 1
  1480   2222   2221 1
  1481   2223   2221 1
  1482   2225   2224 1
  1483   2226   2224 1
  1484   2228   2227 1
  1485   2229   2227 1
  1486   2231   2230 1
  1487   2232   2230 1
  1488   2234   2233 1
  1489   2235   2233 1
  1490   2237   2236 1
  1491   2238   2236 1
  1492   2240   2239 1
  1493   2241   2239 1
  1494   2243   2242 1
  1495   2244   2242 1
  1496   2246   2245 1
  1497   2247   2245 1
  1498   2249   2248 1
  1499   2250   2248 1
  1500   2252   2251 1
  1501   2253   2251 1
  1502   2255   2254 1
  1503   2256   2254 1
  1504   2258   2257 1
  1505   2259   2257 1
  1506   2261   2260 1
  1507   2262   2260 1
  1508   2264   2263 1
  1509   2265   2263 1
  1510   2267   2266 1
  1511   2268   2266 1
  1512   2270   2269 1
  1513   2271   2269 1
  1514   2273   2272 1
  1515   2274   2272 1
  1516   2276   2275 1
  1517   2277   2275 1
  1518   2279   2278 1
  1519   2280   2278 1
  1520   2282   2281 1
  1521   2283   2281 1
  1522   2285   2284 1
  1523   2286   2284 1
  1524   2288   2287 1
  1525   2289   2287 1
  1526   2291   2290 1
  1527   2292   2290 1
  1528   2294   2293 1
  1529   2295   2293 1
  1530   2297   2296 1
  1531   2298   2296 1
  1532   2300   2299 1
  1533   2301   2299 1
  1534   2303   2302 1
  1535   2304   2302 1
  1536   2306   2305 1
  1537   2307   2305 1
  1538   2309   2308 1
  1539   2310   2308 1
  1540   2312   2311 1
  1541   2313   2311 1
  1542   2315   2314 1
  1543   2316   2314 1
  1544   2318   2317 1
  1545   2319   2317 1
  1546   2321   2320 1
  1547   2322   2320 1
  1548   2324   2323 1
  1549   2325   2323 1
  1550   2327   2326 1
  1551   2328   2326 1
  1552   2330   2329 1
  1553   2331   2329 1
  1554   2333   2332 1
  1555   2334   2332 1
  1556   2336   2335 1
  1557   2337   2335 1
  1558   2339   2338 1
  1559   2340   2338 1
  1560   2342   2341 1
  1561   2343   2341 1
  1562   2345   2344 1
  1563   2346   2344 1
  1564   2348   2347 1
  1565   2349   2347 1
  1566   2351   2350 1
  1567   2352   2350 1
  1568   2354   2353 1
  1569   2355   2353 1
  1570   2357   2356 1
  1571   2358   2356 1
  1572   2360   2359 1
  1573   2361   2359 1
  1574   2363   2362 1
  1575   2364   2362 1
  1576   2366   2365 1
  1577   2367   2365 1
  1578   2369   2368 1
  1579   2370   2368 1
  1580   2372   2371 1
  1581   2373   2371 1
  1582   2375   2374 1
  1583   2376   2374 1
  1584   2378   2377 1
  1585   2379   2377 1
  1586   2381   2380 1
  1587   2382   2380 1
  1588   2384   2383 1
  1589   2385   2383 1
  1590   2387   2386 1
  1591   2388   2386 1
  1592   2390   2389 1
  1593   2391   2389 1
  1594   2393   2392 1
  1595   2394   2392 1
  1596   2396   2395 1
  1597   2397   2395 1
  1598   2399   2398 1
  1599   2400   2398 1
  1600   2402   2401 1
  1601   2403   2401 1
  1602   2405   2404 1
  1603   2406   2404 1
  1604   2408   2407 1
  1605   2409   2407 1
  1606   2411   2410 1
  1607   2412   2410 1
  1608   2414   2413 1
  1609   2415   2413 1
  1610   2417   2416 1
  1611   2418   2416 1
  1612   2420   2419 1
  1613   2421   2419 1
  1614   2423   2422 1
  1615   2424   2422 1
  1616   2426   2425 1
  1617   2427   2425 1
  1618   2429   2428 1
  1619   2430   2428 1
  1620   2432   2431 1
  1621   2433   2431 1
  1622   2435   2434 1
  1623   2436   2434 1
  1624   2438   2437 1
  1625   2439   2437 1
  1626   2441   2440 1
  1627   2442   2440 1
  1628   2444   2443 1
  1629   2445   2443 1
  1630   2447   2446 1
  1631   2448   2446 1
  1632   2450   2449 1
  1633   2451   2449 1
  1634   2453   2452 1
  1635   2454   2452 1
  1636   2456   2455 1
  1637   2457   2455 1
  1638   2459   2458 1
  1639   2460   2458 1
  1640   2462   2461 1
  1641   2463   2461 1
  1642   2465   2464 1
  1643   2466   2464 1
  1644   2468   2467 1
  1645   2469   2467 1
  1646   2471   2470 1
  1647   2472   2470 1
  1648   2474   2473 1
  1649   2475   2473 1
  1650   2477   2476 1
  1651   2478   2476 1
  1652   2480   2479 1
  1653   2481   2479 1
  1654   2483   2482 1
  1655   2484   2482 1
  1656   2486   2485 1
  1657   2487   2485 1
  1658   2489   2488 1
  1659   2490   2488 1
  1660   2492   2491 1
  1661   2493   2491 1
  1662   2495   2494 1
  1663   2496   2494 1
  1664   2498   2497 1
  1665   2499   2497 1
  1666   2501   2500 1
  1667   2502   2500 1
  1668   2504   2503 1
  1669   2505   2503 1
  1670   2507   2506 1
  1671   2508   2506 1
  1672   2510   2509 1
  1673   2511   2509 1
  1674   2513   2512 1
  1675   2514   2512 1
  1676   2516   2515 1
  1677   2517   2515 1
  1678   2519   2518 1
  1679   2520   2518 1
  1680   2522   2521 1
  1681   2523   2521 1
  1682   2525   2524 1
  1683   2526   2524 1
  1684   2528   2527 1
  1685   2529   2527 1
  1686   2531   2530 1
  1687   2532   2530 1
  1688   2534   2533 1
  1689   2535   2533 1
  1690   2537   2536 1
  1691   2538   2536 1
  1692   2540   2539 1
  1693   2541   2539 1
  1694   2543   2542 1
  1695   2544   2542 1
  1696   2546   2545 1
  1697   2547   2545 1
  1698   2549   2548 1
  1699   2550   2548 1
  1700   2552   2551 1
  1701   2553   2551 1
  1702   2555   2554 1
  1703   2556   2554 1
  1704   2558   2557 1
  1705   2559   2557 1
  1706   2561   2560 1
  1707   2562   2560 1
  1708   2564   2563 1
  1709   2565   2563 1
  1710   2567   2566 1
  1711   2568   2566 1
  1712   2570   2569 1
  1713   2571   2569 1
  1714   2573   2572 1
  1715   2574   2572 1
  1716   2576   2575 1
  1717   2577   2575 1
  1718   2579   2578 1
  1719   2580   2578 1
  1720   2582   2581 1
  1721   2583   2581 1
  1722   2585   2584 1
  1723   2586   2584 1
  1724   2588   2587 1
  1725   2589   2587 1
  1726   2591   2590 1
  1727   2592   2590 1
  1728   2594   2593 1
  1729   2595   2593 1
  1730   2597   2596 1
  1731   2598   2596 1
  1732   2600   2599 1
  1733   2601   2599 1
  1734   2603   2602 1
  1735   2604   2602 1
  1736   2606   2605 1
  1737   2607   2605 1
  1738   2609   2608 1
  1739   2610   2608 1
  1740   2612   2611 1
  1741   2613   2611 1
  1742   2615   2614 1
  1743   2616   2614 1
  1744   2618   2617 1
  1745   2619   2617 1
  1746   2621   2620 1
  1747   2622   2620 1
  1748   2624   2623 1
  1749   2625   2623 1
  1750   2627   2626 1
  1751   2628   2626 1
  1752   2630   2629 1
  1753   2631   2629 1
  1754   2633   2632 1
  1755   2634   2632 1
  1756   2636   2635 1
  1757   2637   2635 1
  1758   2639   2638 1
  1759   2640   2638 1
  1760   2642   2641 1
  1761   2643   2641 1
  1762   2645   2644 1
  1763   2646   2644 1
  1764   2648   2647 1
  1765   2649   2647 1
  1766   2651   2650 1
  1767   2652   2650 1
  1768   2654   2653 1
  1769   2655   2653 1
  1770   2657   2656 1
  1771   2658   2656 1
  1772   2660   2659 1
  1773   2661   2659 1
  1774   2663   2662 1
  1775   2664   2662 1
  1776   2666   2665 1
  1777   2667   2665 1
  1778   2669   2668 1
  1779   2670   2668 1
  1780   2672   2671 1
  1781   2673   2671 1
  1782   2675   2674 1
  1783   2676   2674 1
  1784   2678   2677 1
  1785   2679   2677 1
  1786   2681   2680 1
  1787   2682   2680 1
  1788   2684   2683 1
  1789   2685   2683 1
  1790   2687   2686 1
  1791   2688   2686 1
  1792   2690   2689 1
  1793   2691   2689 1
  1794   2693   2692 1
  1795   2694   2692 1
  1796   2696   2695 1
  1797   2697   2695 1
  1798   2699   2698 1
  1799   2700   2698 1
  1800   2702   2701 1
  1801   2703   2701 1
  1802   2705   2704 1
  1803   2706   2704 1
  1804   2708   2707 1
  1805   2709   2707 1
  1806   2711   2710 1
  1807   2712   2710 1
  1808   2714   2713 1
  1809   2715   2713 1
  1810   2717   2716 1
  1811   2718   2716 1
  1812   2720   2719 1
  1813   2721   2719 1
  1814   2723   2722 1
  1815   2724   2722 1
  1816   2726   2725 1
  1817   2727   2725 1
  1818   2729   2728 1
  1819   2730   2728 1
  1820   2732   2731 1
  1821   2733   2731 1
  1822   2735   2734 1
  1823   2736   2734 1
  1824   2738   2737 1
  1825   2739   2737 1
  1826   2741   2740 1
  1827   2742   2740 1
  1828   2744   2743 1
  1829   2745   2743 1
  1830   2747   2746 1
  1831   2748   2746 1
  1832   2750   2749 1
  1833   2751   2749 1
  1834   2753   2752 1
  1835   2754   2752 1
  1836   2756   2755 1
  1837   2757   2755 1
  1838   2759   2758 1
  1839   2760   2758 1
  1840   2762   2761 1
  1841   2763   2761 1
  1842   2765   2764 1
  1843   2766   2764 1
  1844   2768   2767 1
  1845   2769   2767 1
  1846   2771   2770 1
  1847   2772   2770 1
  1848   2774   2773 1
  1849   2775   2773 1
  1850   2777   2776 1
  1851   2778   2776 1
  1852   2780   2779 1
  1853   2781   2779 1
  1854   2783   2782 1
  1855   2784   2782 1
  1856   2786   2785 1
  1857   2787   2785 1
  1858   2789   2788 1
  1859   2790   2788 1
  1860   2792   2791 1
  1861   2793   2791 1
  1862   2795   2794 1
  1863   2796   2794 1
  1864   2798   2797 1
  1865   2799   2797 1
  1866   2801   2800 1
  1867   2802   2800 1
  1868   2804   2803 1
  1869   2805   2803 1
  1870   2807   2806 1
  1871   2808   2806 1
  1872   2810   2809 1
  1873   2811   2809 1
  1874   2813   2812 1
  1875   2814   2812 1
  1876   2816   2815 1
  1877   2817   2815 1
  1878   2819   2818 1
  1879   2820   2818 1
  1880   2822   2821 1
  1881   2823   2821 1
  1882   2825   2824 1
  1883   2826   2824 1
  1884   2828   2827 1
  1885   2829   2827 1
  1886   2831   2830 1
  1887   2832   2830 1
  1888   2834   2833 1
  1889   2835   2833 1
  1890   2837   2836 1
  1891   2838   2836 1
  1892   2840   2839 1
  1893   2841   2839 1
  1894   2843   2842 1
  1895   2844   2842 1
  1896   2846   2845 1
  1897   2847   2845 1
  1898   2849   2848 1
  1899   2850   2848 1
  1900   2852   2851 1
  1901   2853   2851 1
  1902   2855   2854 1
  1903   2856   2854 1
  1904   2858   2857 1
  1905   2859   2857 1
  1906   2861   2860 1
  1907   2862   2860 1
  1908   2864   2863 1
  1909   2865   2863 1
  1910   2867   2866 1
  1911   2868   2866 1
  1912   2870   2869 1
  1913   2871   2869 1
  1914   2873   2872 1
  1915   2874   2872 1
  1916   2876   2875 1
  1917   2877   2875 1
  1918   2879   2878 1
  1919   2880   2878 1
  1920   2882   2881 1
  1921   2883   2881 1
  1922   2885   2884 1
  1923   2886   2884 1
  1924   2888   2887 1
  1925   2889   2887 1
  1926   2891   2890 1
  1927   2892   2890 1
  1928   2894   2893 1
  1929   2895   2893 1
  1930   2897   2896 1
  1931   2898   2896 1
  1932   2900   2899 1
  1933   2901   2899 1
  1934   2903   2902 1
  1935   2904   2902 1
  1936   2906   2905 1
  1937   2907   2905 1
  1938   2909   2908 1
  1939   2910   2908 1
  1940   2912   2911 1
  1941   2913   2911 1
  1942   2915   2914 1
  1943   2916   2914 1
  1944   2918   2917 1
  1945   2919   2917 1
  1946   2921   2920 1
  1947   2922   2920 1
  1948   2924   2923 1
  1949   2925   2923 1
  1950   2927   2926 1
  1951   2928   2926 1
  1952   2930   2929 1
  1953   2931   2929 1
  1954   2933   2932 1
  1955   2934   2932 1
  1956   2936   2935 1
  1957   2937   2935 1
  1958   2939   2938 1
  1959   2940   2938 1
  1960   2942   2941 1
  1961   2943   2941 1
  1962   2945   2944 1
  1963   2946   2944 1
  1964   2948   2947 1
  1965   2949   2947 1
  1966   2951   2950 1
  1967   2952   2950 1
  1968   2954   2953 1
  1969   2955   2953 1
  1970   2957   2956 1
  1971   2958   2956 1
  1972   2960   2959 1
  1973   2961   2959 1
  1974   2963   2962 1
  1975   2964   2962 1
  1976   2966   2965 1
  1977   2967   2965 1
  1978   2969   2968 1
  1979   2970   2968 1
  1980   2972   2971 1
  1981   2973   2971 1
  1982   2975   2974 1
  1983   2976   2974 1
  1984   2978   2977 1
  1985   2979   2977 1
  1986   2981   2980 1
  1987   2982   2980 1
  1988   2984   2983 1
  1989   2985   2983 1
  1990   2987   2986 1
  1991   2988   2986 1
  1992   2990   2989 1
  1993   2991   2989 1
  1994   2993   2992 1
  1995   2994   2992 1
  1996   2996   2995 1
  1997   2997   2995 1
  1998   2999   2998 1
  1999   3000   2998 1
  2000   3002   3001 1
  2001   3003   3001 1
  2002   3005   3004 1
  2003   3006   3004 1
  2004   3008   3007 1
  2005   3009   3007 1
  2006   3011   3010 1
  2007   3012   3010 1
  2008   3014   3013 1
  2009   3015   3013 1
  2010   3017   3016 1
  2011   3018   3016 1
  2012   3020   3019 1
  2013   3021   3019 1
  2014   3023   3022 1
  2015   3024   3022 1
  2016   3026   3025 1
  2017   3027   3025 1
  2018   3029   3028 1
  2019   3030   3028 1
  2020   3032   3031 1
  2021   3033   3031 1
  2022   3035   3034 1
  2023   3036   3034 1
  2024   3038   3037 1
  2025   3039   3037 1
  2026   3041   3040 1
  2027   3042   3040 1
  2028   3044   3043 1
  2029   3045   3043 1
  2030   3047   3046 1
  2031   3048   3046 1
  2032   3050   3049 1
  2033   3051   3049 1
  2034   3053   3052 1
  2035   3054   3052 1
  2036   3056   3055 1
  2037   3057   3055 1
  2038   3059   3058 1
  2039   3060   3058 1
  2040   3062   3061 1
  2041   3063   3061 1
  2042   3065   3064 1
  2043   3066   3064 1
  2044   3068   3067 1
  2045   3069   3067 1
  2046   3071   3070 1
  2047   3072   3070 1
  2048   3074   3073 1
  2049   3075   3073 1
  2050   3077   3076 1
  2051   3078   3076 1
  2052   3080   3079 1
  2053   3081   3079 1
  2054   3083   3082 1
  2055   3084   3082 1
  2056   3086   3085 1
  2057   3087   3085 1
  2058   3089   3088 1
  2059   3090   3088 1
  2060   3092   3091 1
  2061   3093   3091 1
  2062   3095   3094 1
  2063   3096   3094 1
  2064   3098   3097 1
  2065   3099   3097 1
  2066   3101   3100 1
  2067   3102   3100 1
  2068   3104   3103 1
  2069   3105   3103 1
  2070   3107   3106 1
  2071   3108   3106 1
  2072   3110   3109 1
  2073   3111   3109 1
  2074   3113   3112 1
  2075   3114   3112 1
  2076   3116   3115 1
  2077   3117   3115 1
  2078   3119   3118 1
  2079   3120   3118 1
  2080   3122   3121 1
  2081   3123   3121 1
  2082   3125   3124 1
  2083   3126   3124 1
  2084   3128   3127 1
  2085   3129   3127 1
  2086   3131   3130 1
  2087   3132   3130 1
  2088   3134   3133 1
  2089   3135   3133 1
  2090   3137   3136 1
  2091   3138   3136 1
  2092   3140   3139 1
  2093   3141   3139 1
  2094   3143   3142 1
  2095   3144   3142 1
  2096   3146   3145 1
  2097   3147   3145 1
  2098   3149   3148 1
  2099   3150   3148 1
  2100   3152   3151 1
  2101   3153   3151 1
  2102   3155   3154 1
  2103   3156   3154 1
  2104   3158   3157 1
  2105   3159   3157 1
  2106   3161   3160 1
  2107   3162   3160 1
  2108   3164   3163 1
  2109   3165   3163 1
  2110   3167   3166 1
  2111   3168   3166 1
  2112   3170   3169 1
  2113   3171   3169 1
  2114   3173   3172 1
  2115   3174   3172 1
  2116   3176   3175 1
  2117   3177   3175 1
  2118   3179   3178 1
  2119   3180   3178 1
  2120   3182   3181 1
  2121   3183   3181 1
  2122   3185   3184 1
  2123   3186   3184 1
  2124   3188   3187 1
  2125   3189   3187 1
  2126   3191   3190 1
  2127   3192   3190 1
  2128   3194   3193 1
  2129   3195   3193 1
  2130   3197   3196 1
  2131   3198   3196 1
  2132   3200   3199 1
  2133   3201   3199 1
  2134   3203   3202 1
  2135   3204   3202 1
  2136   3206   3205 1
  2137   3207   3205 1
  2138   3209   3208 1
  2139   3210   3208 1
  2140   3212   3211 1
  2141   3213   3211 1
  2142   3215   3214 1
  2143   3216   3214 1
  2144   3218   3217 1
  2145   3219   3217 1
  2146   3221   3220 1
  2147   3222   3220 1
  2148   3224   3223 1
  2149   3225   3223 1
  2150   3227   3226 1
  2151   3228   3226 1
  2152   3230   3229 1
  2153   3231   3229 1
  2154   3233   3232 1
  2155   3234   3232 1
  2156   3236   3235 1
  2157   3237   3235 1
  2158   3239   3238 1
  2159   3240   3238 1
  2160   3242   3241 1
  2161   3243   3241 1
  2162   3245   3244 1
  2163   3246   3244 1
  2164   3248   3247 1
  2165   3249   3247 1
  2166   3251   3250 1
  2167   3252   3250 1
  2168   3254   3253 1
  2169   3255   3253 1
  2170   3257   3256 1
  2171   3258   3256 1
  2172   3260   3259 1
  2173   3261   3259 1
  2174   3263   3262 1
  2175   3264   3262 1
  2176   3266   3265 1
  2177   3267   3265 1
  2178   3269   3268 1
  2179   3270   3268 1
  2180   3272   3271 1
  2181   3273   3271 1
  2182   3275   3274 1
  2183   3276   3274 1
  2184   3278   3277 1
  2185   3279   3277 1
  2186   3281   3280 1
  2187   3282   3280 1
  2188   3284   3283 1
  2189   3285   3283 1
  2190   3287   3286 1
  2191   3288   3286 1
  2192   3290   3289 1
  2193   3291   3289 1
  2194   3293   3292 1
  2195   3294   3292 1
  2196   3296   3295 1
  2197   3297   3295 1
  2198   3299   3298 1
  2199   3300   3298 1
  2200   3302   3301 1
  2201   3303   3301 1
  2202   3305   3304 1
  2203   3306   3304 1
  2204   3308   3307 1
  2205   3309   3307 1
  2206   3311   3310 1
  2207   3312   3310 1
  2208   3314   3313 1
  2209   3315   3313 1
  2210   3317   3316 1
  2211   3318   3316 1
  2212   3320   3319 1
  2213   3321   3319 1
  2214   3323   3322 1
  2215   3324   3322 1
  2216   3326   3325 1
  2217   3327   3325 1
  2218   3329   3328 1
  2219   3330   3328 1
  2220   3332   3331 1
  2221   3333   3331 1
  2222   3335   3334 1
  2223   3336   3334 1
  2224   3338   3337 1
  2225   3339   3337 1
  2226   3341   3340 1
  2227   3342   3340 1
  2228   3344   3343 1
  2229   3345   3343 1
  2230   3347   3346 1
  2231   3348   3346 1
  2232   3350   3349 1
  2233   3351   3349 1
  2234   3353   3352 1
  2235   3354   3352 1
  2236   3356   3355 1
  2237   3357   3355 1
  2238   3359   3358 1
  2239   3360   3358 1
  2240   3362   3361 1
  2241   3363   3361 1
  2242   3365   3364 1
  2243   3366   3364 1
  2244   3368   3367 1
  2245   3369   3367 1
  2246   3371   3370 1
  2247   3372   3370 1
  2248   3374   3373 1
  2249   3375   3373 1
  2250   3377   3376 1
  2251   3378   3376 1
  2252   3380   3379 1
  2253   3381   3379 1
  2254   3383   3382 1
  2255   3384   3382 1
  2256   3386   3385 1
  2257   3387   3385 1
  2258   3389   3388 1
  2259   3390   3388 1
  2260   3392   3391 1
  2261   3393   3391 1
  2262   3395   3394 1
  2263   3396   3394 1
  2264   3398   3397 1
  2265   3399   3397 1
  2266   3401   3400 1
  2267   3402   3400 1
  2268   3404   3403 1
  2269   3405   3403 1
  2270   3407   3406 1
  2271   3408   3406 1
  2272   3410   3409 1
  2273   3411   3409 1
  2274   3413   3412 1
  2275   3414   3412 1
  2276   3416   3415 1
  2277   3417   3415 1
  2278   3419   3418 1
  2279   3420   3418 1
  2280   3422   3421 1
  2281   3423   3421 1
  2282   3425   3424 1
  2283   3426   3424 1
  2284   3428   3427 1
  2285   3429   3427 1
  2286   3431   3430 1
  2287   3432   3430 1
  2288   3434   3433 1
  2289   3435   3433 1
  2290   3437   3436 1
  2291   3438   3436 1
  2292   3440   3439 1
  2293   3441   3439 1
  2294   3443   3442 1
  2295   3444   3442 1
  2296   3446   3445 1
  2297   3447   3445 1
  2298   3449   3448 1
  2299   3450   3448 1
  2300   3452   3451 1
  2301   3453   3451 1
  2302   3455   3454 1
  2303   3456   3454 1
  2304   3458   3457 1
  2305   3459   3457 1
  2306   3461   3460 1
  2307   3462   3460 1
  2308   3464   3463 1
  2309   3465   3463 1
  2310   3467   3466 1
  2311   3468   3466 1
  2312   3470   3469 1
  2313   3471   3469 1
  2314   3473   3472 1
  2315   3474   3472 1
  2316   3476   3475 1
  2317   3477   3475 1
  2318   3479   3478 1
  2319   3480   3478 1
  2320   3482   3481 1
  2321   3483   3481 1
  2322   3485   3484 1
  2323   3486   3484 1
  2324   3488   3487 1
  2325   3489   3487 1
  2326   3491   3490 1
  2327   3492   3490 1
  2328   3494   3493 1
  2329   3495   3493 1
  2330   3497   3496 1
  2331   3498   3496 1
  2332   3500   3499 1
  2333   3501   3499 1
  2334   3503   3502 1
  2335   3504   3502 1
  2336   3506   3505 1
  2337   3507   3505 1
  2338   3509   3508 1
  2339   3510   3508 1
  2340   3512   3511 1
  2341   3513   3511 1
  2342   3515   3514 1
  2343   3516   3514 1
  2344   3518   3517 1
  2345   3519   3517 1
  2346   3521   3520 1
  2347   3522   3520 1
  2348   3524   3523 1
  2349   3525   3523 1
  2350   3527   3526 1
  2351   3528   3526 1
  2352   3530   3529 1
  2353   3531   3529 1
  2354   3533   3532 1
  2355   3534   3532 1
  2356   3536   3535 1
  2357   3537   3535 1
  2358   3539   3538 1
  2359   3540   3538 1
  2360   3542   3541 1
  2361   3543   3541 1
  2362   3545   3544 1
  2363   3546   3544 1
  2364   3548   3547 1
  2365   3549   3547 1
  2366   3551   3550 1
  2367   3552   3550 1
  2368   3554   3553 1
  2369   3555   3553 1
  2370   3557   3556 1
  2371   3558   3556 1
  2372   3560   3559 1
  2373   3561   3559 1
  2374   3563   3562 1
  2375   3564   3562 1
  2376   3566   3565 1
  2377   3567   3565 1
  2378   3569   3568 1
  2379   3570   3568 1
  2380   3572   3571 1
  2381   3573   3571 1
  2382   3575   3574 1
  2383   3576   3574 1
  2384   3578   3577 1
  2385   3579   3577 1
  2386   3581   3580 1
  2387   3582   3580 1
  2388   3584   3583 1
  2389   3585   3583 1
  2390   3587   3586 1
  2391   3588   3586 1
  2392   3590   3589 1
  2393   3591   3589 1
  2394   3593   3592 1
  2395   3594   3592 1
  2396   3596   3595 1
  2397   3597   3595 1
  2398   3599   3598 1
  2399   3600   3598 1
  2400   3602   3601 1
  2401   3603   3601 1
  2402   3605   3604 1
  2403   3606   3604 1
  2404   3608   3607 1
  2405   3609   3607 1
  2406   3611   3610 1
  2407   3612   3610 1
  2408   3614   3613 1
  2409   3615   3613 1
  2410   3617   3616 1
  2411   3618   3616 1
  2412   3620   3619 1
  2413   3621   3619 1
  2414   3623   3622 1
  2415   3624   3622 1
  2416   3626   3625 1
  2417   3627   3625 1
  2418   3629   3628 1
  2419   3630   3628 1
  2420   3632   3631 1
  2421   3633   3631 1
  2422   3635   3634 1
  2423   3636   3634 1
  2424   3638   3637 1
  2425   3639   3637 1
  2426   3641   3640 1
  2427   3642   3640 1
  2428   3644   3643 1
  2429   3645   3643 1
  2430   3647   3646 1
  2431   3648   3646 1
  2432   3650   3649 1
  2433   3651   3649 1
  2434   3653   3652 1
  2435   3654   3652 1
  2436   3656   3655 1
  2437   3657   3655 1
  2438   3659   3658 1
  2439   3660   3658 1
  2440   3662   3661 1
  2441   3663   3661 1
  2442   3665   3664 1
  2443   3666   3664 1
  2444   3668   3667 1
  2445   3669   3667 1
  2446   3671   3670 1
  2447   3672   3670 1
  2448   3674   3673 1
  2449   3675   3673 1
  2450   3677   3676 1
  2451   3678   3676 1
  2452   3680   3679 1
  2453   3681   3679 1
  2454   3683   3682 1
  2455   3684   3682 1
  2456   3686   3685 1
  2457   3687   3685 1
  2458   3689   3688 1
  2459   3690   3688 1
  2460   3692   3691 1
  2461   3693   3691 1
  2462   3695   3694 1
  2463   3696   3694 1
  2464   3698   3697 1
  2465   3699   3697 1
  2466   3701   3700 1
  2467   3702   3700 1
  2468   3704   3703 1
  2469   3705   3703 1
  2470   3707   3706 1
  2471   3708   3706 1
  2472   3710   3709 1
  2473   3711   3709 1
  2474   3713   3712 1
  2475   3714   3712 1
  2476   3716   3715 1
  2477   3717   3715 1
  2478   3719   3718 1
  2479   3720   3718 1
  2480   3722   3721 1
  2481   3723   3721 1
  2482   3725   3724 1
  2483   3726   3724 1
  2484   3728   3727 1
  2485   3729   3727 1
  2486   3731   3730 1
  2487   3732   3730 1
  2488   3734   3733 1
  2489   3735   3733 1
  2490   3737   3736 1
  2491   3738   3736 1
  2492   3740   3739 1
  2493   3741   3739 1
  2494   3743   3742 1
  2495   3744   3742 1
  2496   3746   3745 1
  2497   3747   3745 1
  2498   3749   3748 1
  2499   3750   3748 1
  2500   3752   3751 1
  2501   3753   3751 1
  2502   3755   3754 1
  2503   3756   3754 1
  2504   3758   3757 1
  2505   3759   3757 1
  2506   3761   3760 1
  2507   3762   3760 1
  2508   3764   3763 1
  2509   3765   3763 1
  2510   3767   3766 1
  2511   3768   3766 1
  2512   3770   3769 1
  2513   3771   3769 1
  2514   3773   3772 1
  2515   3774   3772 1
  2516   3776   3775 1
  2517   3777   3775 1
  2518   3779   3778 1
  2519   3780   3778 1
  2520   3782   3781 1
  2521   3783   3781 1
  2522   3785   3784 1
  2523   3786   3784 1
  2524   3788   3787 1
  2525   3789   3787 1
  2526   3791   3790 1
  2527   3792   3790 1
  2528   3794   3793 1
  2529   3795   3793 1
  2530   3797   3796 1
  2531   3798   3796 1
  2532   3800   3799 1
  2533   3801   3799 1
  2534   3803   3802 1
  2535   3804   3802 1
  2536   3806   3805 1
  2537   3807   3805 1
  2538   3809   3808 1
  2539   3810   3808 1
  2540   3812   3811 1
  2541   3813   3811 1
  2542   3815   3814 1
  2543   3816   3814 1
  2544   3818   3817 1
  2545   3819   3817 1
  2546   3821   3820 1
  2547   3822   3820 1
  2548   3824   3823 1
  2549   3825   3823 1
  2550   3827   3826 1
  2551   3828   3826 1
  2552   3830   3829 1
  2553   3831   3829 1
  2554   3833   3832 1
  2555   3834   3832 1
  2556   3836   3835 1
  2557   3837   3835 1
  2558   3839   3838 1
  2559   3840   3838 1
  2560   3842   3841 1
  2561   3843   3841 1
  2562   3845   3844 1
  2563   3846   3844 1
  2564   3848   3847 1
  2565   3849   3847 1
  2566   3851   3850 1
  2567   3852   3850 1
  2568   3854   3853 1
  2569   3855   3853 1
  2570   3857   3856 1
  2571   3858   3856 1
  2572   3860   3859 1
  2573   3861   3859 1
  2574   3863   3862 1
  2575   3864   3862 1
  2576   3866   3865 1
  2577   3867   3865 1
  2578   3869   3868 1
  2579   3870   3868 1
  2580   3872   3871 1
  2581   3873   3871 1
  2582   3875   3874 1
  2583   3876   3874 1
  2584   3878   3877 1
  2585   3879   3877 1
  2586   3881   3880 1
  2587   3882   3880 1
  2588   3884   3883 1
  2589   3885   3883 1
  2590   3887   3886 1
  2591   3888   3886 1
  2592   3890   3889 1
  2593   3891   3889 1
  2594   3893   3892 1
  2595   3894   3892 1
  2596   3896   3895 1
  2597   3897   3895 1
  2598   3899   3898 1
  2599   3900   3898 1
  2600   3902   3901 1
  2601   3903   3901 1
  2602   3905   3904 1
  2603   3906   3904 1
  2604   3908   3907 1
  2605   3909   3907 1
  2606   3911   3910 1
  2607   3912   3910 1
  2608   3914   3913 1
  2609   3915   3913 1
  2610   3917   3916 1
  2611   3918   3916 1
  2612   3920   3919 1
  2613   3921   3919 1
  2614   3923   3922 1
  2615   3924   3922 1
  2616   3926   3925 1
  2617   3927   3925 1
  2618   3929   3928 1
  2619   3930   3928 1
  2620   3932   3931 1
  2621   3933   3931 1
  2622   3935   3934 1
  2623   3936   3934 1
  2624   3938   3937 1
  2625   3939   3937 1
  2626   3941   3940 1
  2627   3942   3940 1
  2628   3944   3943 1
  2629   3945   3943 1
  2630   3947   3946 1
  2631   3948   3946 1
  2632   3950   3949 1
  2633   3951   3949 1
  2634   3953   3952 1
  2635   3954   3952 1
  2636   3956   3955 1
  2637   3957   3955 1
  2638   3959   3958 1
  2639   3960   3958 1
  2640   3962   3961 1
  2641   3963   3961 1
  2642   3965   3964 1
  2643   3966   3964 1
  2644   3968   3967 1
  2645   3969   3967 1
  2646   3971   3970 1
  2647   3972   3970 1
  2648   3974   3973 1
  2649   3975   3973 1
  2650   3977   3976 1
  2651   3978   3976 1
  2652   3980   3979 1
  2653   3981   3979 1
  2654   3983   3982 1
  2655   3984   3982 1
  2656   3986   3985 1
  2657   3987   3985 1
  2658   3989   3988 1
  2659   3990   3988 1
  2660   3992   3991 1
  2661   3993   3991 1
  2662   3995   3994 1
  2663   3996   3994 1
  2664   3998   3997 1
  2665   3999   3997 1
  2666   4001   4000 1
  2667   4002   4000 1
  2668   4004   4003 1
  2669   4005   4003 1
  2670   4007   4006 1
  2671   4008   4006 1
  2672   4010   4009 1
  2673   4011   4009 1
  2674   4013   4012 1
  2675   4014   4012 1
  2676   4016   4015 1
  2677   4017   4015 1
  2678   4019   4018 1
  2679   4020   4018 1
  2680   4022   4021 1
  2681   4023   4021 1
  2682   4025   4024 1
  2683   4026   4024 1
  2684   4028   4027 1
  2685   4029   4027 1
  2686   4031   4030 1
  2687   4032   4030 1
  2688   4034   4033 1
  2689   4035   4033 1
  2690   4037   4036 1
  2691   4038   4036 1
  2692   4040   4039 1
  2693   4041   4039 1
  2694   4043   4042 1
  2695   4044   4042 1
  2696   4046   4045 1
  2697   4047   4045 1
  2698   4049   4048 1
  2699   4050   4048 1
  2700   4052   4051 1
  2701   4053   4051 1
  2702   4055   4054 1
  2703   4056   4054 1
  2704   4058   4057 1
  2705   4059   4057 1
  2706   4061   4060 1
  2707   4062   4060 1
  2708   4064   4063 1
  2709   4065   4063 1
  2710   4067   4066 1
  2711   4068   4066 1
  2712   4070   4069 1
  2713   4071   4069 1
  2714   4073   4072 1
  2715   4074   4072 1
  2716   4076   4075 1
  2717   4077   4075 1
  2718   4079   4078 1
  2719   4080   4078 1
  2720   4082   4081 1
  2721   4083   4081 1
  2722   4085   4084 1
  2723   4086   4084 1
  2724   4088   4087 1
  2725   4089   4087 1
  2726   4091   4090 1
  2727   4092   4090 1
  2728   4094   4093 1
  2729   4095   4093 1
  2730   4097   4096 1
  2731   4098   4096 1
  2732   4100   4099 1
  2733   4101   4099 1
  2734   4103   4102 1
  2735   4104   4102 1
  2736   4106   4105 1
  2737   4107   4105 1
  2738   4109   4108 1
  2739   4110   4108 1
  2740   4112   4111 1
  2741   4113   4111 1
  2742   4115   4114 1
  2743   4116   4114 1
  2744   4118   4117 1
  2745   4119   4117 1
  2746   4121   4120 1
  2747   4122   4120 1
  2748   4124   4123 1
  2749   4125   4123 1
  2750   4127   4126 1
  2751   4128   4126 1
  2752   4130   4129 1
  2753   4131   4129 1
  2754   4133   4132 1
  2755   4134   4132 1
  2756   4136   4135 1
  2757   4137   4135 1
  2758   4139   4138 1
  2759   4140   4138 1
  2760   4142   4141 1
  2761   4143   4141 1
  2762   4145   4144 1
  2763   4146   4144 1
  2764   4148   4147 1
  2765   4149   4147 1
  2766   4151   4150 1
  2767   4152   4150 1
  2768   4154   4153 1
  2769   4155   4153 1
  2770   4157   4156 1
  2771   4158   4156 1
  2772   4160   4159 1
  2773   4161   4159 1
  2774   4163   4162 1
  2775   4164   4162 1
  2776   4166   4165 1
  2777   4167   4165 1
  2778   4169   4168 1
  2779   4170   4168 1
  2780   4172   4171 1
  2781   4173   4171 1
  2782   4175   4174 1
  2783   4176   4174 1
  2784   4178   4177 1
  2785   4179   4177 1
  2786   4181   4180 1
  2787   4182   4180 1
  2788   4184   4183 1
  2789   4185   4183 1
  2790   4187   4186 1
  2791   4188   4186 1
  2792   4190   4189 1
  2793   4191   4189 1
  2794   4193   4192 1
  2795   4194   4192 1
  2796   4196   4195 1
  2797   4197   4195 1
  2798   4199   4198 1
  2799   4200   4198 1
  2800   4202   4201 1
  2801   4203   4201 1
  2802   4205   4204 1
  2803   4206   4204 1
  2804   4208   4207 1
  2805   4209   4207 1
  2806   4211   4210 1
  2807   4212   4210 1
  2808   4214   4213 1
  2809   4215   4213 1
  2810   4217   4216 1
  2811   4218   4216 1
  2812   4220   4219 1
  2813   4221   4219 1
  2814   4223   4222 1
  2815   4224   4222 1
  2816   4226   4225 1
  2817   4227   4225 1
  2818   4229   4228 1
  2819   4230   4228 1
  2820   4232   4231 1
  2821   4233   4231 1
  2822   4235   4234 1
  2823   4236   4234 1
  2824   4238   4237 1
  2825   4239   4237 1
  2826   4241   4240 1
  2827   4242   4240 1
  2828   4244   4243 1
  2829   4245   4243 1
  2830   4247   4246 1
  2831   4248   4246 1
  2832   4250   4249 1
  2833   4251   4249 1
  2834   4253   4252 1
  2835   4254   4252 1
  2836   4256   4255 1
  2837   4257   4255 1
  2838   4259   4258 1
  2839   4260   4258 1
  2840   4262   4261 1
  2841   4263   4261 1
  2842   4265   4264 1
  2843   4266   4264 1
  2844   4268   4267 1
  2845   4269   4267 1
  2846   4271   4270 1
  2847   4272   4270 1
  2848   4274   4273 1
  2849   4275   4273 1
  2850   4277   4276 1
  2851   4278   4276 1
  2852   4280   4279 1
  2853   4281   4279 1
  2854   4283   4282 1
  2855   4284   4282 1
  2856   4286   4285 1
  2857   4287   4285 1
  2858   4289   4288 1
  2859   4290   4288 1
  2860   4292   4291 1
  2861   4293   4291 1
  2862   4295   4294 1
  2863   4296   4294 1
  2864   4298   4297 1
  2865   4299   4297 1
  2866   4301   4300 1
  2867   4302   4300 1
  2868   4304   4303 1
  2869   4305   4303 1
  2870   4307   4306 1
  2871   4308   4306 1
  2872   4310   4309 1
  2873   4311   4309 1
  2874   4313   4312 1
  2875   4314   4312 1
  2876   4316   4315 1
  2877   4317   4315 1
  2878   4319   4318 1
  2879   4320   4318 1
  2880   4322   4321 1
  2881   4323   4321 1
  2882   4325   4324 1
  2883   4326   4324 1
  2884   4328   4327 1
  2885   4329   4327 1
  2886   4331   4330 1
  2887   4332   4330 1
  2888   4334   4333 1
  2889   4335   4333 1
  2890   4337   4336 1
  2891   4338   4336 1
  2892   4340   4339 1
  2893   4341   4339 1
  2894   4343   4342 1
  2895   4344   4342 1
  2896   4346   4345 1
  2897   4347   4345 1
  2898   4349   4348 1
  2899   4350   4348 1
  2900   4352   4351 1
  2901   4353   4351 1
  2902   4355   4354 1
  2903   4356   4354 1
  2904   4358   4357 1
  2905   4359   4357 1
  2906   4361   4360 1
  2907   4362   4360 1
  2908   4364   4363 1
  2909   4365   4363 1
  2910   4367   4366 1
  2911   4368   4366 1
  2912   4370   4369 1
  2913   4371   4369 1
  2914   4373   4372 1
  2915   4374   4372 1
  2916   4376   4375 1
  2917   4377   4375 1
  2918   4379   4378 1
  2919   4380   4378 1
  2920   4382   4381 1
  2921   4383   4381 1
  2922   4385   4384 1
  2923   4386   4384 1
  2924   4388   4387 1
  2925   4389   4387 1
  2926   4391   4390 1
  2927   4392   4390 1
  2928   4394   4393 1
  2929   4395   4393 1
  2930   4397   4396 1
  2931   4398   4396 1
  2932   4400   4399 1
  2933   4401   4399 1
  2934   4403   4402 1
  2935   4404   4402 1
  2936   4406   4405 1
  2937   4407   4405 1
  2938   4409   4408 1
  2939   4410   4408 1
  2940   4412   4411 1
  2941   4413   4411 1
  2942   4415   4414 1
  2943   4416   4414 1
  2944   4418   4417 1
  2945   4419   4417 1
  2946   4421   4420 1
  2947   4422   4420 1
  2948   4424   4423 1
  2949   4425   4423 1
  2950   4427   4426 1
  2951   4428   4426 1
  2952   4430   4429 1
  2953   4431   4429 1
  2954   4433   4432 1
  2955   4434   4432 1
  2956   4436   4435 1
  2957   4437   4435 1
  2958   4439   4438 1
  2959   4440   4438 1
  2960   4442   4441 1
  2961   4443   4441 1
  2962   4445   4444 1
  2963   4446   4444 1
  2964   4448   4447 1
  2965   4449   4447 1
  2966   4451   4450 1
  2967   4452   4450 1
  2968   4454   4453 1
  2969   4455   4453 1
  2970   4457   4456 1
  2971   4458   4456 1
  2972   4460   4459 1
  2973   4461   4459 1
  2974   4463   4462 1
  2975   4464   4462 1
  2976   4466   4465 1
  2977   4467   4465 1
  2978   4469   4468 1
  2979   4470   4468 1
  2980   4472   4471 1
  2981   4473   4471 1
  2982   4475   4474 1
  2983   4476   4474 1
  2984   4478   4477 1
  2985   4479   4477 1
  2986   4481   4480 1
  2987   4482   4480 1
  2988   4484   4483 1
  2989   4485   4483 1
  2990   4487   4486 1
  2991   4488   4486 1
  2992   4490   4489 1
  2993   4491   4489 1
  2994   4493   4492 1
  2995   4494   4492 1
  2996   4496   4495 1
  2997   4497   4495 1
  2998   4499   4498 1
  2999   4500   4498 1
  3000   4502   4501 1
  3001   4503   4501 1
  3002   4505   4504 1
  3003   4506   4504 1
  3004   4508   4507 1
  3005   4509   4507 1
  3006   4511   4510 1
  3007   4512   4510 1
  3008   4514   4513 1
  3009   4515   4513 1
  3010   4517   4516 1
  3011   4518   4516 1
  3012   4520   4519 1
  3013   4521   4519 1
  3014   4523   4522 1
  3015   4524   4522 1
  3016   4526   4525 1
  3017   4527   4525 1
  3018   4529   4528 1
  3019   4530   4528 1
  3020   4532   4531 1
  3021   4533   4531 1
  3022   4535   4534 1
  3023   4536   4534 1
  3024   4538   4537 1
  3025   4539   4537 1
  3026   4541   4540 1
  3027   4542   4540 1
  3028   4544   4543 1
  3029   4545   4543 1
  3030   4547   4546 1
  3031   4548   4546 1
  3032   4550   4549 1
  3033   4551   4549 1
  3034   4553   4552 1
  3035   4554   4552 1
  3036   4556   4555 1
  3037   4557   4555 1
  3038   4559   4558 1
  3039   4560   4558 1
  3040   4562   4561 1
  3041   4563   4561 1
  3042   4565   4564 1
  3043   4566   4564 1
  3044   4568   4567 1
  3045   4569   4567 1
  3046   4571   4570 1
  3047   4572   4570 1
  3048   4574   4573 1
  3049   4575   4573 1
  3050   4577   4576 1
  3051   4578   4576 1
  3052   4580   4579 1
  3053   4581   4579 1
  3054   4583   4582 1
  3055   4584   4582 1
  3056   4586   4585 1
  3057   4587   4585 1
  3058   4589   4588 1
  3059   4590   4588 1
  3060   4592   4591 1
  3061   4593   4591 1
  3062   4595   4594 1
  3063   4596   4594 1
  3064   4598   4597 1
  3065   4599   4597 1
  3066   4601   4600 1
  3067   4602   4600 1
  3068   4604   4603 1
  3069   4605   4603 1
  3070   4607   4606 1
  3071   4608   4606 1
  3072   4610   4609 1
  3073   4611   4609 1
  3074   4613   4612 1
  3075   4614   4612 1
  3076   4616   4615 1
  3077   4617   4615 1
  3078   4619   4618 1
  3079   4620   4618 1
  3080   4622   4621 1
  3081   4623   4621 1
  3082   4625   4624 1
  3083   4626   4624 1
  3084   4628   4627 1
  3085   4629   4627 1
  3086   4631   4630 1
  3087   4632   4630 1
  3088   4634   4633 1
  3089   4635   4633 1
  3090   4637   4636 1
  3091   4638   4636 1
  3092   4640   4639 1
  3093   4641   4639 1
  3094   4643   4642 1
  3095   4644   4642 1
  3096   4646   4645 1
  3097   4647   4645 1
  3098   4649   4648 1
  3099   4650   4648 1
  3100   4652   4651 1
  3101   4653   4651 1
  3102   4655   4654 1
  3103   4656   4654 1
  3104   4658   4657 1
  3105   4659   4657 1
  3106   4661   4660 1
  3107   4662   4660 1
  3108   4664   4663 1
  3109   4665   4663 1
  3110   4667   4666 1
  3111   4668   4666 1
  3112   4670   4669 1
  3113   4671   4669 1
  3114   4673   4672 1
  3115   4674   4672 1
  3116   4676   4675 1
  3117   4677   4675 1
  3118   4679   4678 1
  3119   4680   4678 1
  3120   4682   4681 1
  3121   4683   4681 1
  3122   4685   4684 1
  3123   4686   4684 1
  3124   4688   4687 1
  3125   4689   4687 1
  3126   4691   4690 1
  3127   4692   4690 1
  3128   4694   4693 1
  3129   4695   4693 1
  3130   4697   4696 1
  3131   4698   4696 1
  3132   4700   4699 1
  3133   4701   4699 1
  3134   4703   4702 1
  3135   4704   4702 1
  3136   4706   4705 1
  3137   4707   4705 1
  3138   4709   4708 1
  3139   4710   4708 1
  3140   4712   4711 1
  3141   4713   4711 1
  3142   4715   4714 1
  3143   4716   4714 1
  3144   4718   4717 1
  3145   4719   4717 1
  3146   4721   4720 1
  3147   4722   4720 1
  3148   4724   4723 1
  3149   4725   4723 1
  3150   4727   4726 1
  3151   4728   4726 1
  3152   4730   4729 1
  3153   4731   4729 1
  3154   4733   4732 1
  3155   4734   4732 1
  3156   4736   4735 1
  3157   4737   4735 1
  3158   4739   4738 1
  3159   4740   4738 1
  3160   4742   4741 1
  3161   4743   4741 1
  3162   4745   4744 1
  3163   4746   4744 1
  3164   4748   4747 1
  3165   4749   4747 1
  3166   4751   4750 1
  3167   4752   4750 1
  3168   4754   4753 1
  3169   4755   4753 1
  3170   4757   4756 1
  3171   4758   4756 1
  3172   4760   4759 1
  3173   4761   4759 1
  3174   4763   4762 1
  3175   4764   4762 1
  3176   4766   4765 1
  3177   4767   4765 1
  3178   4769   4768 1
  3179   4770   4768 1
  3180   4772   4771 1
  3181   4773   4771 1
  3182   4775   4774 1
  3183   4776   4774 1
  3184   4778   4777 1
  3185   4779   4777 1
  3186   4781   4780 1
  3187   4782   4780 1
  3188   4784   4783 1
  3189   4785   4783 1
  3190   4787   4786 1
  3191   4788   4786 1
  3192   4790   4789 1
  3193   4791   4789 1
  3194   4793   4792 1
  3195   4794   4792 1
  3196   4796   4795 1
  3197   4797   4795 1
  3198   4799   4798 1
  3199   4800   4798 1
  3200   4802   4801 1
  3201   4803   4801 1
  3202   4805   4804 1
  3203   4806   4804 1
  3204   4808   4807 1
  3205   4809   4807 1
  3206   4811   4810 1
  3207   4812   4810 1
  3208   4814   4813 1
  3209   4815   4813 1
  3210   4817   4816 1
  3211   4818   4816 1
  3212   4820   4819 1
  3213   4821   4819 1
  3214   4823   4822 1
  3215   4824   4822 1
  3216   4826   4825 1
  3217   4827   4825 1
  3218   4829   4828 1
  3219   4830   4828 1
  3220   4832   4831 1
  3221   4833   4831 1
  3222   4835   4834 1
  3223   4836   4834 1
  3224   4838   4837 1
  3225   4839   4837 1
  3226   4841   4840 1
  3227   4842   4840 1
  3228   4844   4843 1
  3229   4845   4843 1
  3230   4847   4846 1
  3231   4848   4846 1
  3232   4850   4849 1
  3233   4851   4849 1
  3234   4853   4852 1
  3235   4854   4852 1
  3236   4856   4855 1
  3237   4857   4855 1
  3238   4859   4858 1
  3239   4860   4858 1
  3240   4862   4861 1
  3241   4863   4861 1
  3242   4865   4864 1
  3243   4866   4864 1
  3244   4868   4867 1
  3245   4869   4867 1
  3246   4871   4870 1
  3247   4872   4870 1
  3248   4874   4873 1
  3249   4875   4873 1
  3250   4877   4876 1
  3251   4878   4876 1
  3252   4880   4879 1
  3253   4881   4879 1
  3254   4883   4882 1
  3255   4884   4882 1
  3256   4886   4885 1
  3257   4887   4885 1
  3258   4889   4888 1
  3259   4890   4888 1
  3260   4892   4891 1
  3261   4893   4891 1
  3262   4895   4894 1
  3263   4896   4894 1
  3264   4898   4897 1
  3265   4899   4897 1
  3266   4901   4900 1
  3267   4902   4900 1
  3268   4904   4903 1
  3269   4905   4903 1
  3270   4907   4906 1
  3271   4908   4906 1
  3272   4910   4909 1
  3273   4911   4909 1
  3274   4913   4912 1
  3275   4914   4912 1
  3276   4916   4915 1
  3277   4917   4915 1
  3278   4919   4918 1
  3279   4920   4918 1
  3280   4922   4921 1
  3281   4923   4921 1
  3282   4925   4924 1
  3283   4926   4924 1
  3284   4928   4927 1
  3285   4929   4927 1
  3286   4931   4930 1
  3287   4932   4930 1
  3288   4934   4933 1
  3289   4935   4933 1
  3290   4937   4936 1
  3291   4938   4936 1
  3292   4940   4939 1
  3293   4941   4939 1
  3294   4943   4942 1
  3295   4944   4942 1
  3296   4946   4945 1
  3297   4947   4945 1
  3298   4949   4948 1
  3299   4950   4948 1
  3300   4952   4951 1
  3301   4953   4951 1
  3302   4955   4954 1
  3303   4956   4954 1
  3304   4958   4957 1
  3305   4959   4957 1
  3306   4961   4960 1
  3307   4962   4960 1
  3308   4964   4963 1
  3309   4965   4963 1
  3310   4967   4966 1
  3311   4968   4966 1
  3312   4970   4969 1
  3313   4971   4969 1
  3314   4973   4972 1
  3315   4974   4972 1
  3316   4976   4975 1
  3317   4977   4975 1
  3318   4979   4978 1
  3319   4980   4978 1
  3320   4982   4981 1
  3321   4983   4981 1
  3322   4985   4984 1
  3323   4986   4984 1
  3324   4988   4987 1
  3325   4989   4987 1
  3326   4991   4990 1
  3327   4992   4990 1
  3328   4994   4993 1
  3329   4995   4993 1
  3330   4997   4996 1
  3331   4998   4996 1
  3332   5000   4999 1
  3333   5001   4999 1
  3334   5003   5002 1
  3335   5004   5002 1
  3336   5006   5005 1
  3337   5007   5005 1
  3338   5009   5008 1
  3339   5010   5008 1
  3340   5012   5011 1
  3341   5013   5011 1
  3342   5015   5014 1
  3343   5016   5014 1
  3344   5018   5017 1
  3345   5019   5017 1
  3346   5021   5020 1
  3347   5022   5020 1
  3348   5024   5023 1
  3349   5025   5023 1
  3350   5027   5026 1
  3351   5028   5026 1
  3352   5030   5029 1
  3353   5031   5029 1
  3354   5033   5032 1
  3355   5034   5032 1
  3356   5036   5035 1
  3357   5037   5035 1
  3358   5039   5038 1
  3359   5040   5038 1
  3360   5042   5041 1
  3361   5043   5041 1
  3362   5045   5044 1
  3363   5046   5044 1
  3364   5048   5047 1
  3365   5049   5047 1
  3366   5051   5050 1
  3367   5052   5050 1
  3368   5054   5053 1
  3369   5055   5053 1
  3370   5057   5056 1
  3371   5058   5056 1
  3372   5060   5059 1
  3373   5061   5059 1
  3374   5063   5062 1
  3375   5064   5062 1
  3376   5066   5065 1
  3377   5067   5065 1
  3378   5069   5068 1
  3379   5070   5068 1
  3380   5072   5071 1
  3381   5073   5071 1
  3382   5075   5074 1
  3383   5076   5074 1
  3384   5078   5077 1
  3385   5079   5077 1
  3386   5081   5080 1
  3387   5082   5080 1
  3388   5084   5083 1
  3389   5085   5083 1
  3390   5087   5086 1
  3391   5088   5086 1
  3392   5090   5089 1
  3393   5091   5089 1
  3394   5093   5092 1
  3395   5094   5092 1
  3396   5096   5095 1
  3397   5097   5095 1
  3398   5099   5098 1
  3399   5100   5098 1
  3400   5102   5101 1
  3401   5103   5101 1
  3402   5105   5104 1
  3403   5106   5104 1
  3404   5108   5107 1
  3405   5109   5107 1
  3406   5111   5110 1
  3407   5112   5110 1
  3408   5114   5113 1
  3409   5115   5113 1
  3410   5117   5116 1
  3411   5118   5116 1
  3412   5120   5119 1
  3413   5121   5119 1
  3414   5123   5122 1
  3415   5124   5122 1
  3416   5126   5125 1
  3417   5127   5125 1
  3418   5129   5128 1
  3419   5130   5128 1
  3420   5132   5131 1
  3421   5133   5131 1
  3422   5135   5134 1
  3423   5136   5134 1
  3424   5138   5137 1
  3425   5139   5137 1
  3426   5141   5140 1
  3427   5142   5140 1
  3428   5144   5143 1
  3429   5145   5143 1
  3430   5147   5146 1
  3431   5148   5146 1
  3432   5150   5149 1
  3433   5151   5149 1
  3434   5153   5152 1
  3435   5154   5152 1
  3436   5156   5155 1
  3437   5157   5155 1
  3438   5159   5158 1
  3439   5160   5158 1
  3440   5162   5161 1
  3441   5163   5161 1
  3442   5165   5164 1
  3443   5166   5164 1
  3444   5168   5167 1
  3445   5169   5167 1
  3446   5171   5170 1
  3447   5172   5170 1
  3448   5174   5173 1
  3449   5175   5173 1
  3450   5177   5176 1
  3451   5178   5176 1
  3452   5180   5179 1
  3453   5181   5179 1
  3454   5183   5182 1
  3455   5184   5182 1
  3456   5186   5185 1
  3457   5187   5185 1
  3458   5189   5188 1
  3459   5190   5188 1
  3460   5192   5191 1
  3461   5193   5191 1
  3462   5195   5194 1
  3463   5196   5194 1
  3464   5198   5197 1
  3465   5199   5197 1
  3466   5201   5200 1
  3467   5202   5200 1
  3468   5204   5203 1
  3469   5205   5203 1
  3470   5207   5206 1
  3471   5208   5206 1
  3472   5210   5209 1
  3473   5211   5209 1
  3474   5213   5212 1
  3475   5214   5212 1
  3476   5216   5215 1
  3477   5217   5215 1
  3478   5219   5218 1
  3479   5220   5218 1
  3480   5222   5221 1
  3481   5223   5221 1
  3482   5225   5224 1
  3483   5226   5224 1
  3484   5228   5227 1
  3485   5229   5227 1
  3486   5231   5230 1
  3487   5232   5230 1
  3488   5234   5233 1
  3489   5235   5233 1
  3490   5237   5236 1
  3491   5238   5236 1
  3492   5240   5239 1
  3493   5241   5239 1
  3494   5243   5242 1
  3495   5244   5242 1
  3496   5246   5245 1
  3497   5247   5245 1
  3498   5249   5248 1
  3499   5250   5248 1
  3500   5252   5251 1
  3501   5253   5251 1
  3502   5255   5254 1
  3503   5256   5254 1
  3504   5258   5257 1
  3505   5259   5257 1
  3506   5261   5260 1
  3507   5262   5260 1
  3508   5264   5263 1
  3509   5265   5263 1
  3510   5267   5266 1
  3511   5268   5266 1
  3512   5270   5269 1
  3513   5271   5269 1
  3514   5273   5272 1
  3515   5274   5272 1
  3516   5276   5275 1
  3517   5277   5275 1
  3518   5279   5278 1
  3519   5280   5278 1
  3520   5282   5281 1
  3521   5283   5281 1
  3522   5285   5284 1
  3523   5286   5284 1
  3524   5288   5287 1
  3525   5289   5287 1
  3526   5291   5290 1
  3527   5292   5290 1
  3528   5294   5293 1
  3529   5295   5293 1
  3530   5297   5296 1
  3531   5298   5296 1
  3532   5300   5299 1
  3533   5301   5299 1
  3534   5303   5302 1
  3535   5304   5302 1
  3536   5306   5305 1
  3537   5307   5305 1
  3538   5309   5308 1
  3539   5310   5308 1
  3540   5312   5311 1
  3541   5313   5311 1
  3542   5315   5314 1
  3543   5316   5314 1
  3544   5318   5317 1
  3545   5319   5317 1
  3546   5321   5320 1
  3547   5322   5320 1
  3548   5324   5323 1
  3549   5325   5323 1
  3550   5327   5326 1
  3551   5328   5326 1
  3552   5330   5329 1
  3553   5331   5329 1
  3554   5333   5332 1
  3555   5334   5332 1
  3556   5336   5335 1
  3557   5337   5335 1
  3558   5339   5338 1
  3559   5340   5338 1
  3560   5342   5341 1
  3561   5343   5341 1
  3562   5345   5344 1
  3563   5346   5344 1
  3564   5348   5347 1
  3565   5349   5347 1
  3566   5351   5350 1
  3567   5352   5350 1
  3568   5354   5353 1
  3569   5355   5353 1
  3570   5357   5356 1
  3571   5358   5356 1
  3572   5360   5359 1
  3573   5361   5359 1
  3574   5363   5362 1
  3575   5364   5362 1
  3576   5366   5365 1
  3577   5367   5365 1
  3578   5369   5368 1
  3579   5370   5368 1
  3580   5372   5371 1
  3581   5373   5371 1
  3582   5375   5374 1
  3583   5376   5374 1
  3584   5378   5377 1
  3585   5379   5377 1
  3586   5381   5380 1
  3587   5382   5380 1
  3588   5384   5383 1
  3589   5385   5383 1
  3590   5387   5386 1
  3591   5388   5386 1
  3592   5390   5389 1
  3593   5391   5389 1
  3594   5393   5392 1
  3595   5394   5392 1
  3596   5396   5395 1
  3597   5397   5395 1
  3598   5399   5398 1
  3599   5400   5398 1
  3600   5402   5401 1
  3601   5403   5401 1
  3602   5405   5404 1
  3603   5406   5404 1
  3604   5408   5407 1
  3605   5409   5407 1
  3606   5411   5410 1
  3607   5412   5410 1
  3608   5414   5413 1
  3609   5415   5413 1
  3610   5417   5416 1
  3611   5418   5416 1
  3612   5420   5419 1
  3613   5421   5419 1
  3614   5423   5422 1
  3615   5424   5422 1
  3616   5426   5425 1
  3617   5427   5425 1
  3618   5429   5428 1
  3619   5430   5428 1
  3620   5432   5431 1
  3621   5433   5431 1
  3622   5435   5434 1
  3623   5436   5434 1
  3624   5438   5437 1
  3625   5439   5437 1
  3626   5441   5440 1
  3627   5442   5440 1
  3628   5444   5443 1
  3629   5445   5443 1
  3630   5447   5446 1
  3631   5448   5446 1
  3632   5450   5449 1
  3633   5451   5449 1
  3634   5453   5452 1
  3635   5454   5452 1
  3636   5456   5455 1
  3637   5457   5455 1
  3638   5459   5458 1
  3639   5460   5458 1
  3640   5462   5461 1
  3641   5463   5461 1
  3642   5465   5464 1
  3643   5466   5464 1
  3644   5468   5467 1
  3645   5469   5467 1
  3646   5471   5470 1
  3647   5472   5470 1
  3648   5474   5473 1
  3649   5475   5473 1
  3650   5477   5476 1
  3651   5478   5476 1
  3652   5480   5479 1
  3653   5481   5479 1
  3654   5483   5482 1
  3655   5484   5482 1
  3656   5486   5485 1
  3657   5487   5485 1
  3658   5489   5488 1
  3659   5490   5488 1
  3660   5492   5491 1
  3661   5493   5491 1
  3662   5495   5494 1
  3663   5496   5494 1
  3664   5498   5497 1
  3665   5499   5497 1
  3666   5501   5500 1
  3667   5502   5500 1
  3668   5504   5503 1
  3669   5505   5503 1
  3670   5507   5506 1
  3671   5508   5506 1
  3672   5510   5509 1
  3673   5511   5509 1
  3674   5513   5512 1
  3675   5514   5512 1
  3676   5516   5515 1
  3677   5517   5515 1
  3678   5519   5518 1
  3679   5520   5518 1
  3680   5522   5521 1
  3681   5523   5521 1
  3682   5525   5524 1
  3683   5526   5524 1
  3684   5528   5527 1
  3685   5529   5527 1
  3686   5531   5530 1
  3687   5532   5530 1
  3688   5534   5533 1
  3689   5535   5533 1
  3690   5537   5536 1
  3691   5538   5536 1
  3692   5540   5539 1
  3693   5541   5539 1
  3694   5543   5542 1
  3695   5544   5542 1
  3696   5546   5545 1
  3697   5547   5545 1
  3698   5549   5548 1
  3699   5550   5548 1
  3700   5552   5551 1
  3701   5553   5551 1
  3702   5555   5554 1
  3703   5556   5554 1
  3704   5558   5557 1
  3705   5559   5557 1
  3706   5561   5560 1
  3707   5562   5560 1
  3708   5564   5563 1
  3709   5565   5563 1
  3710   5567   5566 1
  3711   5568   5566 1
  3712   5570   5569 1
  3713   5571   5569 1
  3714   5573   5572 1
  3715   5574   5572 1
  3716   5576   5575 1
  3717   5577   5575 1
  3718   5579   5578 1
  3719   5580   5578 1
  3720   5582   5581 1
  3721   5583   5581 1
  3722   5585   5584 1
  3723   5586   5584 1
  3724   5588   5587 1
  3725   5589   5587 1
  3726   5591   5590 1
  3727   5592   5590 1
  3728   5594   5593 1
  3729   5595   5593 1
  3730   5597   5596 1
  3731   5598   5596 1
  3732   5600   5599 1
  3733   5601   5599 1
  3734   5603   5602 1
  3735   5604   5602 1
  3736   5606   5605 1
  3737   5607   5605 1
  3738   5609   5608 1
  3739   5610   5608 1
  3740   5612   5611 1
  3741   5613   5611 1
  3742   5615   5614 1
  3743   5616   5614 1
  3744   5618   5617 1
  3745   5619   5617 1
  3746   5621   5620 1
  3747   5622   5620 1
  3748   5624   5623 1
  3749   5625   5623 1
  3750   5627   5626 1
  3751   5628   5626 1
  3752   5630   5629 1
  3753   5631   5629 1
  3754   5633   5632 1
  3755   5634   5632 1
  3756   5636   5635 1
  3757   5637   5635 1
  3758   5639   5638 1
  3759   5640   5638 1
  3760   5642   5641 1
  3761   5643   5641 1
  3762   5645   5644 1
  3763   5646   5644 1
  3764   5648   5647 1
  3765   5649   5647 1
  3766   5651   5650 1
  3767   5652   5650 1
  3768   5654   5653 1
  3769   5655   5653 1
  3770   5657   5656 1
  3771   5658   5656 1
  3772   5660   5659 1
  3773   5661   5659 1
  3774   5663   5662 1
  3775   5664   5662 1
  3776   5666   5665 1
  3777   5667   5665 1
  3778   5669   5668 1
  3779   5670   5668 1
  3780   5672   5671 1
  3781   5673   5671 1
  3782   5675   5674 1
  3783   5676   5674 1
  3784   5678   5677 1
  3785   5679   5677 1
  3786   5681   5680 1
  3787   5682   5680 1
  3788   5684   5683 1
  3789   5685   5683 1
  3790   5687   5686 1
  3791   5688   5686 1
  3792   5690   5689 1
  3793   5691   5689 1
  3794   5693   5692 1
  3795   5694   5692 1
  3796   5696   5695 1
  3797   5697   5695 1
  3798   5699   5698 1
  3799   5700   5698 1
  3800   5702   5701 1
  3801   5703   5701 1
  3802   5705   5704 1
  3803   5706   5704 1
  3804   5708   5707 1
  3805   5709   5707 1
  3806   5711   5710 1
  3807   5712   5710 1
  3808   5714   5713 1
  3809   5715   5713 1
  3810   5717   5716 1
  3811   5718   5716 1
  3812   5720   5719 1
  3813   5721   5719 1
  3814   5723   5722 1
  3815   5724   5722 1
  3816   5726   5725 1
  3817   5727   5725 1
  3818   5729   5728 1
  3819   5730   5728 1
  3820   5732   5731 1
  3821   5733   5731 1
  3822   5735   5734 1
  3823   5736   5734 1
  3824   5738   5737 1
  3825   5739   5737 1
  3826   5741   5740 1
  3827   5742   5740 1
  3828   5744   5743 1
  3829   5745   5743 1
  3830   5747   5746 1
  3831   5748   5746 1
  3832   5750   5749 1
  3833   5751   5749 1
  3834   5753   5752 1
  3835   5754   5752 1
  3836   5756   5755 1
  3837   5757   5755 1
  3838   5759   5758 1
  3839   5760   5758 1
  3840   5762   5761 1
  3841   5763   5761 1
  3842   5765   5764 1
  3843   5766   5764 1
  3844   5768   5767 1
  3845   5769   5767 1
  3846   5771   5770 1
  3847   5772   5770 1
  3848   5774   5773 1
  3849   5775   5773 1
  3850   5777   5776 1
  3851   5778   5776 1
  3852   5780   5779 1
  3853   5781   5779 1
  3854   5783   5782 1
  3855   5784   5782 1
  3856   5786   5785 1
  3857   5787   5785 1
  3858   5789   5788 1
  3859   5790   5788 1
  3860   5792   5791 1
  3861   5793   5791 1
  3862   5795   5794 1
  3863   5796   5794 1
  3864   5798   5797 1
  3865   5799   5797 1
  3866   5801   5800 1
  3867   5802   5800 1
  3868   5804   5803 1
  3869   5805   5803 1
  3870   5807   5806 1
  3871   5808   5806 1
  3872   5810   5809 1
  3873   5811   5809 1
  3874   5813   5812 1
  3875   5814   5812 1
  3876   5816   5815 1
  3877   5817   5815 1
  3878   5819   5818 1
  3879   5820   5818 1
  3880   5822   5821 1
  3881   5823   5821 1
  3882   5825   5824 1
  3883   5826   5824 1
  3884   5828   5827 1
  3885   5829   5827 1
  3886   5831   5830 1
  3887   5832   5830 1
  3888   5834   5833 1
  3889   5835   5833 1
  3890   5837   5836 1
  3891   5838   5836 1
  3892   5840   5839 1
  3893   5841   5839 1
  3894   5843   5842 1
  3895   5844   5842 1
  3896   5846   5845 1
  3897   5847   5845 1
  3898   5849   5848 1
  3899   5850   5848 1
  3900   5852   5851 1
  3901   5853   5851 1
  3902   5855   5854 1
  3903   5856   5854 1
  3904   5858   5857 1
  3905   5859   5857 1
  3906   5861   5860 1
  3907   5862   5860 1
  3908   5864   5863 1
  3909   5865   5863 1
  3910   5867   5866 1
  3911   5868   5866 1
  3912   5870   5869 1
  3913   5871   5869 1
  3914   5873   5872 1
  3915   5874   5872 1
  3916   5876   5875 1
  3917   5877   5875 1
  3918   5879   5878 1
  3919   5880   5878 1
  3920   5882   5881 1
  3921   5883   5881 1
  3922   5885   5884 1
  3923   5886   5884 1
  3924   5888   5887 1
  3925   5889   5887 1
  3926   5891   5890 1
  3927   5892   5890 1
  3928   5894   5893 1
  3929   5895   5893 1
  3930   5897   5896 1
  3931   5898   5896 1
  3932   5900   5899 1
  3933   5901   5899 1
  3934   5903   5902 1
  3935   5904   5902 1
  3936   5906   5905 1
  3937   5907   5905 1
  3938   5909   5908 1
  3939   5910   5908 1
  3940   5912   5911 1
  3941   5913   5911 1
  3942   5915   5914 1
  3943   5916   5914 1
  3944   5918   5917 1
  3945   5919   5917 1
  3946   5921   5920 1
  3947   5922   5920 1
  3948   5924   5923 1
  3949   5925   5923 1
  3950   5927   5926 1
  3951   5928   5926 1
  3952   5930   5929 1
  3953   5931   5929 1
  3954   5933   5932 1
  3955   5934   5932 1
  3956   5936   5935 1
  3957   5937   5935 1
  3958   5939   5938 1
  3959   5940   5938 1
  3960   5942   5941 1
  3961   5943   5941 1
  3962   5945   5944 1
  3963   5946   5944 1
  3964   5948   5947 1
  3965   5949   5947 1
  3966   5951   5950 1
  3967   5952   5950 1
  3968   5954   5953 1
  3969   5955   5953 1
  3970   5957   5956 1
  3971   5958   5956 1
  3972   5960   5959 1
  3973   5961   5959 1
  3974   5963   5962 1
  3975   5964   5962 1
  3976   5966   5965 1
  3977   5967   5965 1
  3978   5969   5968 1
  3979   5970   5968 1
  3980   5972   5971 1
  3981   5973   5971 1
  3982   5975   5974 1
  3983   5976   5974 1
  3984   5978   5977 1
  3985   5979   5977 1
  3986   5981   5980 1
  3987   5982   5980 1
  3988   5984   5983 1
  3989   5985   5983 1
  3990   5987   5986 1
  3991   5988   5986 1
  3992   5990   5989 1
  3993   5991   5989 1
  3994   5993   5992 1
  3995   5994   5992 1
  3996   5996   5995 1
  3997   5997   5995 1
  3998   5999   5998 1
  3999   6000   5998 1
  4000   6002   6001 1
  4001   6003   6001 1
  4002   6005   6004 1
  4003   6006   6004 1
  4004   6008   6007 1
  4005   6009   6007 1
  4006   6011   6010 1
  4007   6012   6010 1
  4008   6014   6013 1
  4009   6015   6013 1
  4010   6017   6016 1
  4011   6018   6016 1
  4012   6020   6019 1
  4013   6021   6019 1
  4014   6023   6022 1
  4015   6024   6022 1
  4016   6026   6025 1
  4017   6027   6025 1
  4018   6029   6028 1
  4019   6030   6028 1
  4020   6032   6031 1
  4021   6033   6031 1
  4022   6035   6034 1
  4023   6036   6034 1
  4024   6038   6037 1
  4025   6039   6037 1
  4026   6041   6040 1
  4027   6042   6040 1
  4028   6044   6043 1
  4029   6045   6043 1
  4030   6047   6046 1
  4031   6048   6046 1
  4032   6050   6049 1
  4033   6051   6049 1
  4034   6053   6052 1
  4035   6054   6052 1
  4036   6056   6055 1
  4037   6057   6055 1
  4038   6059   6058 1
  4039   6060   6058 1
  4040   6062   6061 1
  4041   6063   6061 1
  4042   6065   6064 1
  4043   6066   6064 1
  4044   6068   6067 1
  4045   6069   6067 1
  4046   6071   6070 1
  4047   6072   6070 1
  4048   6074   6073 1
  4049   6075   6073 1
  4050   6077   6076 1
  4051   6078   6076 1
  4052   6080   6079 1
  4053   6081   6079 1
  4054   6083   6082 1
  4055   6084   6082 1
  4056   6086   6085 1
  4057   6087   6085 1
  4058   6089   6088 1
  4059   6090   6088 1
  4060   6092   6091 1
  4061   6093   6091 1
  4062   6095   6094 1
  4063   6096   6094 1
  4064   6098   6097 1
  4065   6099   6097 1
  4066   6101   6100 1
  4067   6102   6100 1
  4068   6104   6103 1
  4069   6105   6103 1
  4070   6107   6106 1
  4071   6108   6106 1
  4072   6110   6109 1
  4073   6111   6109 1
  4074   6113   6112 1
  4075   6114   6112 1
  4076   6116   6115 1
  4077   6117   6115 1
  4078   6119   6118 1
  4079   6120   6118 1
  4080   6122   6121 1
  4081   6123   6121 1
  4082   6125   6124 1
  4083   6126   6124 1
  4084   6128   6127 1
  4085   6129   6127 1
  4086   6131   6130 1
  4087   6132   6130 1
  4088   6134   6133 1
  4089   6135   6133 1
  4090   6137   6136 1
  4091   6138   6136 1
  4092   6140   6139 1
  4093   6141   6139 1
  4094   6143   6142 1
  4095   6144   6142 1
  4096   6146   6145 1
  4097   6147   6145 1
  4098   6149   6148 1
  4099   6150   6148 1
  4100   6152   6151 1
  4101   6153   6151 1
  4102   6155   6154 1
  4103   6156   6154 1
  4104   6158   6157 1
  4105   6159   6157 1
  4106   6161   6160 1
  4107   6162   6160 1
  4108   6164   6163 1
  4109   6165   6163 1
  4110   6167   6166 1
  4111   6168   6166 1
  4112   6170   6169 1
  4113   6171   6169 1
  4114   6173   6172 1
  4115   6174   6172 1
  4116   6176   6175 1
  4117   6177   6175 1
  4118   6179   6178 1
  4119   6180   6178 1
  4120   6182   6181 1
  4121   6183   6181 1
  4122   6185   6184 1
  4123   6186   6184 1
  4124   6188   6187 1
  4125   6189   6187 1
  4126   6191   6190 1
  4127   6192   6190 1
  4128   6194   6193 1
  4129   6195   6193 1
  4130   6197   6196 1
  4131   6198   6196 1
  4132   6200   6199 1
  4133   6201   6199 1
  4134   6203   6202 1
  4135   6204   6202 1
  4136   6206   6205 1
  4137   6207   6205 1
  4138   6209   6208 1
  4139   6210   6208 1
  4140   6212   6211 1
  4141   6213   6211 1
  4142   6215   6214 1
  4143   6216   6214 1
  4144   6218   6217 1
  4145   6219   6217 1
  4146   6221   6220 1
  4147   6222   6220 1
  4148   6224   6223 1
  4149   6225   6223 1
  4150   6227   6226 1
  4151   6228   6226 1
  4152   6230   6229 1
  4153   6231   6229 1
  4154   6233   6232 1
  4155   6234   6232 1
  4156   6236   6235 1
  4157   6237   6235 1
  4158   6239   6238 1
  4159   6240   6238 1
  4160   6242   6241 1
  4161   6243   6241 1
  4162   6245   6244 1
  4163   6246   6244 1
  4164   6248   6247 1
  4165   6249   6247 1
  4166   6251   6250 1
  4167   6252   6250 1
  4168   6254   6253 1
  4169   6255   6253 1
  4170   6257   6256 1
  4171   6258   6256 1
  4172   6260   6259 1
  4173   6261   6259 1
  4174   6263   6262 1
  4175   6264   6262 1
  4176   6266   6265 1
  4177   6267   6265 1
  4178   6269   6268 1
  4179   6270   6268 1
  4180   6272   6271 1
  4181   6273   6271 1
  4182   6275   6274 1
  4183   6276   6274 1
  4184   6278   6277 1
  4185   6279   6277 1
  4186   6281   6280 1
  4187   6282   6280 1
  4188   6284   6283 1
  4189   6285   6283 1
  4190   6287   6286 1
  4191   6288   6286 1
  4192   6290   6289 1
  4193   6291   6289 1
  4194   6293   6292 1
  4195   6294   6292 1
  4196   6296   6295 1
  4197   6297   6295 1
  4198   6299   6298 1
  4199   6300   6298 1
  4200   6302   6301 1
  4201   6303   6301 1
  4202   6305   6304 1
  4203   6306   6304 1
  4204   6308   6307 1
  4205   6309   6307 1
  4206   6311   6310 1
  4207   6312   6310 1
  4208   6314   6313 1
  4209   6315   6313 1
  4210   6317   6316 1
  4211   6318   6316 1
  4212   6320   6319 1
  4213   6321   6319 1
  4214   6323   6322 1
  4215   6324   6322 1
  4216   6326   6325 1
  4217   6327   6325 1
  4218   6329   6328 1
  4219   6330   6328 1
  4220   6332   6331 1
  4221   6333   6331 1
  4222   6335   6334 1
  4223   6336   6334 1
  4224   6338   6337 1
  4225   6339   6337 1
  4226   6341   6340 1
  4227   6342   6340 1
  4228   6344   6343 1
  4229   6345   6343 1
  4230   6347   6346 1
  4231   6348   6346 1
  4232   6350   6349 1
  4233   6351   6349 1
  4234   6353   6352 1
  4235   6354   6352 1
  4236   6356   6355 1
  4237   6357   6355 1
  4238   6359   6358 1
  4239   6360   6358 1
  4240   6362   6361 1
  4241   6363   6361 1
  4242   6365   6364 1
  4243   6366   6364 1
  4244   6368   6367 1
  4245   6369   6367 1
  4246   6371   6370 1
  4247   6372   6370 1
  4248   6374   6373 1
  4249   6375   6373 1
  4250   6377   6376 1
  4251   6378   6376 1
  4252   6380   6379 1
  4253   6381   6379 1
  4254   6383   6382 1
  4255   6384   6382 1
  4256   6386   6385 1
  4257   6387   6385 1
  4258   6389   6388 1
  4259   6390   6388 1
  4260   6392   6391 1
  4261   6393   6391 1
  4262   6395   6394 1
  4263   6396   6394 1
  4264   6398   6397 1
  4265   6399   6397 1
  4266   6401   6400 1
  4267   6402   6400 1
  4268   6404   6403 1
  4269   6405   6403 1
  4270   6407   6406 1
  4271   6408   6406 1
  4272   6410   6409 1
  4273   6411   6409 1
  4274   6413   6412 1
  4275   6414   6412 1
  4276   6416   6415 1
  4277   6417   6415 1
