@<TRIPOS>MOLECULE
Water Box
2199 1466
SMALL
NO_CHARGES

@<TRIPOS>ATOM
     1 O0        23.9446    28.6332    24.2879   O.3
     2 H1        24.4035    28.5349    23.4801   H
     3 H2        24.0885    27.7010    24.5800   H
     4 O3        -1.0401    23.9514    -5.4606   O.3
     5 H4        -1.9767    23.9857    -5.6995   H
     6 H5        -0.9665    22.9868    -5.2902   H
     7 O6        -0.1816    16.3358     1.5219   O.3
     8 H7         0.0761    16.3204     2.4462   H
     9 H8        -0.0045    15.4081     1.2785   H
    10 O9        15.2835     4.1118    14.3848   O.3
    11 H10       15.5179     4.1743    13.4549   H
    12 H11       15.8433     3.3789    14.7231   H
    13 O12       51.0871    -5.4248    26.5771   O.3
    14 H13       51.3902    -4.5030    26.5365   H
    15 H14       50.8722    -5.5355    25.6361   H
    16 O15       19.1732    -0.4270     4.5566   O.3
    17 H16       19.3329    -0.6546     5.5311   H
    18 H17       20.0595    -0.5506     4.1869   H
    19 O18        2.1039    18.4236    34.3259   O.3
    20 H19        2.4576    17.5893    34.5665   H
    21 H20        2.5457    18.6219    33.4538   H
    22 O21        3.1032    24.5430     1.8803   O.3
    23 H22        3.2268    23.8983     1.1128   H
    24 H23        3.3232    25.3117     1.4006   H
    25 O24       23.0008     3.4513    11.5362   O.3
    26 H25       23.6633     3.7525    10.8366   H
    27 H26       22.8175     4.3363    11.9389   H
    28 O27       -5.9398     5.4482    15.3923   O.3
    29 H28       -6.2326     6.2657    15.7531   H
    30 H29       -6.0381     4.9520    16.2345   H
    31 O30       33.4413    15.6061     0.9641   O.3
    32 H31       33.9251    16.4199     1.2006   H
    33 H32       34.1275    14.9539     0.9004   H
    34 O33       15.2609    21.9406    -3.7207   O.3
    35 H34       14.9907    22.3393    -2.8689   H
    36 H35       14.4910    22.1460    -4.2953   H
    37 O36       -5.8825    37.8247    10.1946   O.3
    38 H37       -5.2208    37.3399    10.6900   H
    39 H38       -5.8025    37.4013     9.3304   H
    40 O39       16.6544    49.0037     3.7600   O.3
    41 H40       16.1832    49.5494     3.1410   H
    42 H41       17.5367    49.0933     3.3916   H
    43 O42        4.9251    15.5687    14.3449   O.3
    44 H43        4.2061    14.9448    14.0872   H
    45 H44        4.4283    16.1825    14.8653   H
    46 O45        1.3341    30.0269    31.2950   O.3
    47 H46        1.3706    30.8056    30.7597   H
    48 H47        1.8297    29.3344    30.7773   H
    49 O48       38.6769     7.7912    16.2316   O.3
    50 H49       38.3095     8.4761    16.8514   H
    51 H50       38.7982     8.3022    15.3985   H
    52 O51        5.5889     9.3726    21.3603   O.3
    53 H52        4.9937     9.7631    22.0884   H
    54 H53        6.1845    10.1918    21.3604   H
    55 O54       54.8786     9.5870    20.4391   O.3
    56 H55       54.4340     8.8346    19.9984   H
    57 H56       54.0982    10.2011    20.3633   H
    58 O57       16.4591    -1.0995    31.1993   O.3
    59 H58       16.4624    -1.2153    30.2741   H
    60 H59       17.3486    -1.3008    31.5752   H
    61 O60       18.5261   -17.8905     8.6434   O.3
    62 H61       19.0299   -17.3904     7.9889   H
    63 H62       19.0123   -17.7013     9.4600   H
    64 O63       17.9603    30.1812    14.1119   O.3
    65 H64       18.5241    30.9987    13.8800   H
    66 H65       18.5693    29.7252    14.6885   H
    67 O66       -8.1875    11.4831     6.5955   O.3
    68 H67       -8.6121    11.2787     5.7798   H
    69 H68       -7.5755    12.2469     6.3394   H
    70 O69       -5.6536    11.8963    -5.7748   O.3
    71 H70       -5.5725    12.9173    -5.6400   H
    72 H71       -6.1220    11.7042    -4.9263   H
    73 O72       -0.1558   -13.6280    17.7740   O.3
    74 H73       -0.3768   -13.4590    18.6874   H
    75 H74       -0.8439   -14.1842    17.4017   H
    76 O75        0.2167     9.0273    -0.6375   O.3
    77 H76       -0.0357     9.1573    -1.5452   H
    78 H77        0.0275     8.0951    -0.5770   H
    79 O78       -0.7593     7.7969     9.0495   O.3
    80 H79       -1.5268     7.1791     8.8125   H
    81 H80       -0.1836     7.0193     9.1973   H
    82 O81        9.2988    -4.1148    22.6227   O.3
    83 H82        8.3639    -4.1244    22.8628   H
    84 H83        9.5006    -3.5061    23.3618   H
    85 O84       26.7495     9.2844    31.6601   O.3
    86 H85       26.2403     9.7450    32.3789   H
    87 H86       26.3102     8.4088    31.6712   H
    88 O87        1.3521    -6.9218    34.3613   O.3
    89 H88        1.4245    -6.5740    35.2554   H
    90 H89        1.3745    -7.8948    34.5295   H
    91 O90        8.0190    22.3277     4.7308   O.3
    92 H91        7.5250    22.3207     3.8475   H
    93 H92        7.3641    22.5353     5.4035   H
    94 O93      -13.2023    16.3276    13.9500   O.3
    95 H94      -12.4007    15.8034    14.0913   H
    96 H95      -13.3846    16.6683    14.8072   H
    97 O96        3.9448    10.4594    14.5367   O.3
    98 H97        4.1555    11.2357    13.9711   H
    99 H98        3.2350    10.9196    15.1236   H
   100 O99       17.9568    12.5522    19.3150   O.3
   101 H100      18.0445    13.2026    20.0705   H
   102 H101      18.6903    12.0191    19.7056   H
   103 O102      19.5970    -2.9418    57.1323   O.3
   104 H103      20.0392    -2.1867    57.4754   H
   105 H104      20.3277    -3.6101    57.2089   H
   106 O105       8.4994     2.9198    12.3481   O.3
   107 H106       9.1771     2.7594    12.9414   H
   108 H107       9.0799     2.9439    11.5488   H
   109 O108       9.5442    -0.4338     1.1402   O.3
   110 H109       9.5681    -0.8760     2.0045   H
   111 H110       9.9669     0.3737     1.4957   H
   112 O111     -10.9072    26.3252     0.4763   O.3
   113 H112     -10.3509    26.7361    -0.2682   H
   114 H113     -10.2023    25.7143     0.6525   H
   115 O114      30.9849    -3.8021    14.3823   O.3
   116 H115      30.5902    -3.0360    13.9394   H
   117 H116      31.6899    -3.3387    14.9630   H
   118 O117      -2.4606    34.9695     3.9995   O.3
   119 H118      -2.0347    34.0997     3.7239   H
   120 H119      -3.0057    34.5449     4.7000   H
   121 O120      26.7253    11.5621    26.4130   O.3
   122 H121      27.5708    11.2151    26.8175   H
   123 H122      26.2594    11.8212    27.2175   H
   124 O123      47.2477     4.9493    12.4226   O.3
   125 H124      47.7874     4.3508    12.9165   H
   126 H125      46.6261     5.1998    13.1479   H
   127 O126       8.2584    50.0368    11.3489   O.3
   128 H127       7.9807    49.2384    11.8533   H
   129 H128       8.9653    50.3863    11.8734   H
   130 O129      40.4757    27.6115    21.6669   O.3
   131 H130      40.0455    28.4851    21.3838   H
   132 H131      40.0417    27.4424    22.5175   H
   133 O132       4.0740    31.6223     0.7542   O.3
   134 H133       4.3462    31.3259    -0.1387   H
   135 H134       4.5471    32.4546     0.6797   H
   136 O135       8.7397    10.0417    12.8041   O.3
   137 H136       8.4851     9.1058    12.7667   H
   138 H137       8.6541    10.2954    11.8620   H
   139 O138      20.5620     2.9873     4.1472   O.3
   140 H139      21.1661     2.7567     3.4873   H
   141 H140      21.1283     3.2988     4.8743   H
   142 O141      41.1445    16.6783    27.0536   O.3
   143 H142      41.0902    15.8130    27.4016   H
   144 H143      40.9956    16.4775    26.0842   H
   145 O144      13.0876     9.6613    15.6861   O.3
   146 H145      12.3007     9.8767    15.1197   H
   147 H146      13.3067    10.6156    15.8999   H
   148 O147     -11.7020    17.6516    -8.4376   O.3
   149 H148     -12.4063    18.1983    -8.7912   H
   150 H149     -12.2349    16.7865    -8.3743   H
   151 O150      50.2629     8.1193    25.2297   O.3
   152 H151      50.8456     7.3909    24.9382   H
   153 H152      50.9086     8.6664    25.6630   H
   154 O153      16.7812    20.5453    17.4003   O.3
   155 H154      16.5607    21.4463    17.5946   H
   156 H155      17.7287    20.7140    17.0173   H
   157 O156     -20.2714    17.2985    25.9068   O.3
   158 H157     -21.2314    17.5046    26.0803   H
   159 H158     -20.1672    17.8107    25.1185   H
   160 O159      24.5096    19.0603    26.9503   O.3
   161 H160      24.2698    18.1374    26.7439   H
   162 H161      25.1157    19.2013    26.2773   H
   163 O162      13.5602    34.4036    34.0534   O.3
   164 H163      14.2194    33.9986    34.6009   H
   165 H164      13.6910    35.3192    34.4043   H
   166 O165       0.8925     0.0748    25.6952   O.3
   167 H166       1.3777     0.7584    26.0916   H
   168 H167       1.5409    -0.6316    25.5430   H
   169 O168       6.3972    18.4963    -7.2711   O.3
   170 H169       5.7178    17.8074    -7.2777   H
   171 H170       6.9267    18.2883    -8.0378   H
   172 O171      13.6050     2.7290    34.1907   O.3
   173 H172      14.6068     2.6328    34.3225   H
   174 H173      13.5824     3.0922    33.2818   H
   175 O174      13.3419     8.9755    26.8159   O.3
   176 H175      12.4975     8.5424    26.4457   H
   177 H176      14.0085     8.4589    26.3651   H
   178 O177       4.7253    29.0492    11.1900   O.3
   179 H178       5.0425    29.5972    11.8835   H
   180 H179       5.1018    28.2215    11.5346   H
   181 O180      10.3101     2.5002    38.3395   O.3
   182 H181      11.1608     2.2887    37.8758   H
   183 H182       9.9541     1.6331    38.2805   H
   184 O183      32.1912    14.6206    10.8264   O.3
   185 H184      31.3201    14.1603    10.7814   H
   186 H185      32.1059    14.8449    11.7797   H
   187 O186     -26.8902     5.8638    16.2036   O.3
   188 H187     -27.7321     6.1546    15.9988   H
   189 H188     -26.9257     5.0291    15.6312   H
   190 O189      13.0514     8.4316     8.6270   O.3
   191 H190      12.3101     9.0090     8.8814   H
   192 H191      13.3324     9.0296     7.8881   H
   193 O192      15.9872    17.4818     6.9281   O.3
   194 H193      15.8997    18.0646     7.7037   H
   195 H194      15.4550    18.0946     6.3436   H
   196 O195      39.7205     6.2058     9.7557   O.3
   197 H196      40.3210     5.4732     9.8099   H
   198 H197      40.3461     6.7786     9.2365   H
   199 O198      -2.8941     3.5499    -3.7525   O.3
   200 H199      -1.9266     3.5200    -3.9062   H
   201 H200      -2.9286     2.7633    -3.2149   H
   202 O201       1.0970    12.0888    11.5922   O.3
   203 H202       1.3297    12.6898    10.8118   H
   204 H203       0.1112    12.1668    11.5053   H
   205 O204     -24.6391   -17.3476    10.6001   O.3
   206 H205     -25.3051   -17.7290    10.0764   H
   207 H206     -25.1735   -17.1634    11.4193   H
   208 O207       1.3685    -3.5053    25.4035   O.3
   209 H208       2.0403    -4.0577    25.0320   H
   210 H209       0.5609    -4.0672    25.4015   H
   211 O210      -0.4143    17.6616    -6.2906   O.3
   212 H211       0.0066    18.2948    -6.8731   H
   213 H212      -1.2302    18.1657    -6.0645   H
   214 O213       9.9213     5.2309    15.7530   O.3
   215 H214      10.1916     6.0374    16.2212   H
   216 H215      10.1532     5.4352    14.8682   H
   217 O216      38.0905    19.5094    15.3032   O.3
   218 H217      37.7601    19.0620    16.1111   H
   219 H218      38.2228    20.4374    15.6546   H
   220 O219       7.6544    31.3469    -1.4212   O.3
   221 H220       7.6097    32.0326    -2.0695   H
   222 H221       8.1167    31.7400    -0.6681   H
   223 O222       1.4537   -11.5463    23.1541   O.3
   224 H223       1.4905   -12.5414    23.0031   H
   225 H224       0.9400   -11.2357    22.4213   H
   226 O225      23.8230    38.5305    25.5679   O.3
   227 H226      23.7569    39.5048    25.4992   H
   228 H227      24.4084    38.4902    26.3382   H
   229 O228      -4.4790    10.7515    30.8264   O.3
   230 H229      -4.5186    11.6065    31.3050   H
   231 H230      -4.5432    10.1705    31.5934   H
   232 O231      13.5835    24.2089     8.9383   O.3
   233 H232      14.4416    24.7283     9.1030   H
   234 H233      13.4121    23.8441     9.8548   H
   235 O234      -7.3510    26.6644    -8.8026   O.3
   236 H235      -7.0521    27.5343    -8.4962   H
   237 H236      -6.9026    26.6514    -9.7041   H
   238 O237      22.1291    20.0398    37.5122   O.3
   239 H238      22.5696    19.1957    37.2771   H
   240 H239      21.5999    19.5781    38.1905   H
   241 O240      -8.3440    20.6427     3.1409   O.3
   242 H241      -7.7630    21.4029     2.9346   H
   243 H242      -8.1943    20.6894     4.1151   H
   244 O243     -13.0949    25.8936    11.6458   O.3
   245 H244     -12.6257    26.1512    12.4864   H
   246 H245     -13.9595    25.5711    11.9605   H
   247 O246      57.4229     8.1446     6.5947   O.3
   248 H247      57.6147     7.2654     6.8763   H
   249 H248      56.5974     8.3674     7.0509   H
   250 O249       1.7437     4.1901     1.6933   O.3
   251 H250       2.5834     3.7338     1.4565   H
   252 H251       1.5432     4.4417     0.7723   H
   253 O252       7.7495   -13.9445    -3.2177   O.3
   254 H253       8.3058   -13.6144    -2.4870   H
   255 H254       8.2947   -13.5128    -3.9326   H
   256 O255      -0.0231     6.2309    -1.6338   O.3
   257 H256      -0.1257     6.4610    -2.5361   H
   258 H257      -0.9642     6.1599    -1.3243   H
   259 O258      15.1892    20.2918    -0.8253   O.3
   260 H259      15.3032    20.1356    -1.7007   H
   261 H260      15.3937    21.2874    -0.8513   H
   262 O261      23.5224    19.7917     3.1878   O.3
   263 H262      22.8862    20.0241     2.5045   H
   264 H263      24.1520    19.3103     2.6978   H
   265 O264      27.4989     1.1903    -4.8957   O.3
   266 H265      27.6174     2.1181    -4.5366   H
   267 H266      27.8920     0.6002    -4.2334   H
   268 O267     -11.5274    -1.5072    15.5476   O.3
   269 H268     -11.1203    -1.3791    16.4255   H
   270 H269     -11.8151    -0.6308    15.2978   H
   271 O270       7.1295     5.2055    39.4231   O.3
   272 H271       7.4313     4.4938    40.0609   H
   273 H272       6.6901     4.6728    38.7698   H
   274 O273      40.1102    -4.0323    -2.9380   O.3
   275 H274      39.4135    -3.3708    -3.2271   H
   276 H275      40.9432    -3.5036    -3.0827   H
   277 O276      37.4724    13.1641    13.0350   O.3
   278 H277      37.9728    13.9272    13.1602   H
   279 H278      38.1546    12.4162    12.9910   H
   280 O279      25.4236     4.0127    20.7287   O.3
   281 H280      25.6423     4.8181    21.2575   H
   282 H281      26.3369     3.6894    20.7361   H
   283 O282       8.8623   -27.9448    16.7891   O.3
   284 H283       8.8082   -27.0883    16.4043   H
   285 H284       9.6714   -27.8892    17.3281   H
   286 O285       0.7451   -10.5693    25.5163   O.3
   287 H286       0.9852   -10.9814    24.6811   H
   288 H287       1.5419   -10.6257    26.0814   H
   289 O288      -6.2089    -1.5032    16.7498   O.3
   290 H289      -5.2715    -1.7621    16.9531   H
   291 H290      -6.4845    -2.2771    16.2360   H
   292 O291      12.4763    14.2281    14.5594   O.3
   293 H292      13.0648    14.7221    15.1806   H
   294 H293      12.0112    13.8222    15.3266   H
   295 O294      14.3285     6.0946    -6.3223   O.3
   296 H295      13.5020     6.2503    -6.6738   H
   297 H296      14.3674     6.6865    -5.5072   H
   298 O297     -17.0595    38.1488     8.6750   O.3
   299 H298     -17.3180    37.9236     7.7596   H
   300 H299     -17.0729    39.1436     8.6854   H
   301 O300      37.3470     0.7848    26.5212   O.3
   302 H301      37.4764     0.3491    27.3902   H
   303 H302      37.4870     1.7492    26.6340   H
   304 O303       2.1554    21.7939   -19.0507   O.3
   305 H304       2.9427    21.4614   -18.5575   H
   306 H305       1.4024    21.6060   -18.4959   H
   307 O306      31.4374     7.0474    16.3884   O.3
   308 H307      30.6351     6.4739    16.3228   H
   309 H308      31.1663     7.7537    16.9415   H
   310 O309      26.1659    25.5226     7.3111   O.3
   311 H310      25.6230    24.7185     7.2525   H
   312 H311      26.4499    25.5533     6.3577   H
   313 O312     -20.8009    11.3590    -6.5833   O.3
   314 H313     -20.3103    11.6928    -5.7695   H
   315 H314     -21.1420    12.2338    -6.9258   H
   316 O315     -22.5931    30.0214    26.9450   O.3
   317 H316     -22.3729    29.2154    26.4229   H
   318 H317     -21.6566    30.4296    26.8741   H
   319 O318       8.7105   -10.7413    -8.0671   O.3
   320 H319       8.6598   -11.2705    -7.2275   H
   321 H320       9.4392   -10.1355    -7.8458   H
   322 O321      17.6872    51.6029     2.4573   O.3
   323 H322      18.3708    52.2189     2.1189   H
   324 H323      17.5889    52.0279     3.3319   H
   325 O324       5.3876   -27.4326     4.9262   O.3
   326 H325       5.8948   -26.6384     4.8816   H
   327 H326       4.9179   -27.2025     4.0878   H
   328 O327     -13.6919    27.3488     4.9308   O.3
   329 H328     -13.0033    26.9641     4.3693   H
   330 H329     -13.8069    26.5426     5.3632   H
   331 O330       9.1862    26.2378     6.0899   O.3
   332 H331       9.9822    25.6734     6.1706   H
   333 H332       8.9466    26.3000     7.0226   H
   334 O333       1.1799     8.1712    31.2872   O.3
   335 H334       0.8151     7.3773    31.8009   H
   336 H335       0.3788     8.7453    31.3798   H
   337 O336      25.2973     8.3404    27.8107   O.3
   338 H337      24.4222     8.3350    28.2235   H
   339 H338      25.7344     9.0523    28.3231   H
   340 O339      20.4652    18.8155    27.8712   O.3
   341 H340      19.7661    19.5196    27.7444   H
   342 H341      21.1954    19.4673    28.0094   H
   343 O342      29.3429     6.2819     9.5047   O.3
   344 H343      30.3019     6.3723     9.5716   H
   345 H344      29.1500     5.9603    10.4499   H
   346 O345      -3.2662     9.1816    23.4028   O.3
   347 H346      -3.6147     9.6661    24.2108   H
   348 H347      -3.4069     8.2931    23.6839   H
   349 O348      17.4177    37.0401    17.5289   O.3
   350 H349      16.7147    36.7577    16.9351   H
   351 H350      17.2579    36.3359    18.1804   H
   352 O351      20.6404    -7.6220    33.9689   O.3
   353 H352      20.3892    -8.2875    34.6481   H
   354 H353      20.4728    -6.7626    34.3535   H
   355 O354      -5.9241    14.7066    -5.5719   O.3
   356 H355      -6.5735    14.8913    -6.2443   H
   357 H356      -6.3688    15.1139    -4.7691   H
   358 O357      11.9105    -0.7620    11.4804   O.3
   359 H358      12.2311    -0.5940    12.4076   H
   360 H359      12.4466    -0.2033    10.9111   H
   361 O360      48.3078     8.3112    20.4873   O.3
   362 H361      47.9981     9.2217    20.4965   H
   363 H362      47.4623     7.8633    20.1798   H
   364 O363       1.4086    -2.9887     3.7277   O.3
   365 H364       0.7330    -3.3634     3.1086   H
   366 H365       2.1713    -2.9721     3.0416   H
   367 O366      23.2978    33.9322    13.0514   O.3
   368 H367      23.2803    34.8797    13.1365   H
   369 H368      22.9920    33.6212    13.9004   H
   370 O369      18.5786    13.8004     2.9012   O.3
   371 H370      18.1913    14.4018     2.2533   H
   372 H371      19.1098    14.3805     3.4628   H
   373 O372      19.6882    -9.9900    -2.7405   O.3
   374 H373      19.8959    -9.8123    -1.8300   H
   375 H374      18.9147    -9.3361    -2.8088   H
   376 O375     -10.4709    35.9023    -4.3894   O.3
   377 H376      -9.8245    36.4700    -3.9287   H
   378 H377     -10.4717    35.1326    -3.8390   H
   379 O378       0.4860    25.1740   -19.3072   O.3
   380 H379       0.7679    25.9177   -19.8889   H
   381 H380      -0.2974    24.9905   -19.8678   H
   382 O381      28.5436    22.4071    19.0796   O.3
   383 H382      28.5910    23.3474    18.9692   H
   384 H383      29.4351    22.2716    19.3883   H
   385 O384      20.5468     3.4092    14.3938   O.3
   386 H385      20.8443     2.7899    15.0779   H
   387 H386      21.3356     4.0589    14.5757   H
   388 O387      14.9277    19.6116    15.7408   O.3
   389 H388      15.5278    19.7316    16.4837   H
   390 H389      14.7448    20.5582    15.5106   H
   391 O390     -12.6707    21.0232    20.6460   O.3
   392 H391     -12.7634    21.2466    19.6808   H
   393 H392     -13.5262    21.3430    21.0650   H
   394 O393      36.1641    20.4488    21.5859   O.3
   395 H394      35.7327    21.2598    21.3474   H
   396 H395      35.4715    19.8857    21.2952   H
   397 O396      15.7718     1.5105    -4.8607   O.3
   398 H397      16.6604     1.3973    -5.1771   H
   399 H398      15.6575     2.4278    -4.5877   H
   400 O399      12.5560   -18.2444    23.2633   O.3
   401 H400      12.9789   -19.1271    23.4181   H
   402 H401      13.1264   -17.9289    22.5291   H
   403 O402       0.8530    12.7902     4.3306   O.3
   404 H403       0.9894    13.7662     4.4689   H
   405 H404       1.3899    12.5892     3.5191   H
   406 O405      -9.9094    14.1847    49.6146   O.3
   407 H406     -10.0369    13.4966    50.2939   H
   408 H407     -10.4685    14.8424    50.0107   H
   409 O408      17.1444    18.0071     2.7025   O.3
   410 H409      17.1656    18.6734     3.3919   H
   411 H410      17.2433    18.5535     1.8983   H
   412 O411      -2.0619    34.0712   -15.2641   O.3
   413 H412      -2.9416    33.7270   -15.0471   H
   414 H413      -1.8350    34.5364   -14.4185   H
   415 O414      23.9320     9.1107     5.6274   O.3
   416 H415      24.1752     8.2194     5.3124   H
   417 H416      24.4042     9.2137     6.4779   H
   418 O417       1.1367    -8.6423    15.1631   O.3
   419 H418       1.7048    -8.0653    15.6539   H
   420 H419       1.6579    -8.8940    14.3981   H
   421 O420      12.8135    -3.8252    40.6638   O.3
   422 H421      11.9394    -3.9050    40.1989   H
   423 H422      12.5446    -3.5994    41.5866   H
   424 O423       9.4429    38.1535    -0.1790   O.3
   425 H424      10.1328    38.5971     0.2797   H
   426 H425       8.7955    38.9051    -0.2804   H
   427 O426       8.7202    -9.5279    45.5605   O.3
   428 H427       7.8205    -9.2650    45.7829   H
   429 H428       8.8365   -10.1999    46.2137   H
   430 O429      -4.1986    12.2470     9.9688   O.3
   431 H430      -5.1681    12.2055    10.2330   H
   432 H431      -4.1070    11.3891     9.5085   H
   433 O432      21.5484    24.1199     5.0459   O.3
   434 H433      21.1691    24.0066     5.9863   H
   435 H434      21.8184    23.1840     4.8846   H
   436 O435      13.5319    22.3811    22.1312   O.3
   437 H436      12.6261    22.1516    22.2854   H
   438 H437      13.5442    23.3500    22.1985   H
   439 O438       6.9734    51.0870    25.7878   O.3
   440 H439       7.5721    51.6623    26.2970   H
   441 H440       7.3517    50.2920    25.9982   H
   442 O441      16.3926    10.4876     5.7344   O.3
   443 H442      16.1747    11.4495     5.8922   H
   444 H443      17.2937    10.6324     5.3133   H
   445 O444      21.5128    -5.3993     2.0736   O.3
   446 H445      21.8366    -6.0286     1.3945   H
   447 H446      22.4020    -5.0324     2.2437   H
   448 O447      46.3796    29.2625    50.1064   O.3
   449 H448      46.5668    29.4512    49.2120   H
   450 H449      47.2769    29.5604    50.4056   H
   451 O450     -23.1705     7.4312    32.2813   O.3
   452 H451     -23.4064     7.4636    33.2182   H
   453 H452     -23.6286     6.6035    32.0945   H
   454 O453      27.7714     3.9372    23.2667   O.3
   455 H454      28.6875     4.2496    23.1954   H
   456 H455      27.5422     3.8803    22.3239   H
   457 O456      20.4344    -7.1795    14.2004   O.3
   458 H457      20.6056    -8.0764    14.6459   H
   459 H458      21.2769    -6.7629    14.4701   H
   460 O459      -7.9056    -0.2406    38.2533   O.3
   461 H460      -8.4135    -0.5576    38.9644   H
   462 H461      -7.3820     0.4265    38.6718   H
   463 O462       8.4377    14.4790    21.9113   O.3
   464 H463       7.8947    14.3403    21.1484   H
   465 H464       9.1584    13.8944    21.6656   H
   466 O465      10.4875     1.8030     1.9254   O.3
   467 H466      10.5477     2.7722     2.1230   H
   468 H467      11.4472     1.5813     1.8817   H
   469 O468      18.2901   -17.0248    41.9843   O.3
   470 H469      17.3568   -17.0562    41.7096   H
   471 H470      18.5060   -17.9388    41.7795   H
   472 O471      28.3940    15.4789   -12.6815   O.3
   473 H472      27.4545    15.3697   -12.7480   H
   474 H473      28.4065    15.0667   -11.7617   H
   475 O474     -10.3349    -7.9219    20.0309   O.3
   476 H475     -10.4798    -8.0790    19.0790   H
   477 H476     -11.2719    -7.7145    20.3318   H
   478 O477     -10.7654    14.3071    39.3057   O.3
   479 H478     -11.0724    14.3577    40.2123   H
   480 H479     -11.2795    13.5142    38.9953   H
   481 O480       5.6987    -0.0159    -2.8696   O.3
   482 H481       4.9392    -0.2391    -3.4069   H
   483 H482       5.8685    -0.9631    -2.6246   H
   484 O483       4.7030   -21.6619    -5.5089   O.3
   485 H484       4.6046   -21.0798    -6.3127   H
   486 H485       4.2821   -21.1192    -4.8348   H
   487 O486      10.5957   -11.9792   -14.1880   O.3
   488 H487      10.8254   -11.2179   -14.7342   H
   489 H488      11.4887   -12.2739   -13.9169   H
   490 O489       4.1891    32.9353    13.3208   O.3
   491 H490       3.9014    33.0091    14.2542   H
   492 H491       4.2177    33.8426    13.1091   H
   493 O492      26.4655    10.2866    13.1785   O.3
   494 H493      26.3333    10.9171    12.4318   H
   495 H494      27.2451     9.8216    12.8821   H
   496 O495      27.8141    22.1910    26.0407   O.3
   497 H496      27.4791    21.5547    25.3895   H
   498 H497      28.3538    21.6302    26.5845   H
   499 O498      32.6380    -3.0826     9.3159   O.3
   500 H499      32.1085    -3.4590     8.6513   H
   501 H500      32.8291    -2.3493     8.6840   H
   502 O501      32.1989     5.8159    -1.4913   O.3
   503 H502      32.8561     5.8275    -2.1777   H
   504 H503      32.8937     5.9539    -0.8064   H
   505 O504       2.7228    13.9359    13.6786   O.3
   506 H505       2.4643    13.8989    14.5832   H
   507 H506       2.1064    13.1869    13.3288   H
   508 O507       7.2318    13.1491    38.8264   O.3
   509 H508       7.1165    14.0669    39.2147   H
   510 H509       7.9564    12.8623    39.4518   H
   511 O510      13.8279     7.1885    -3.7676   O.3
   512 H511      13.2470     6.5259    -3.4334   H
   513 H512      14.4528     7.1392    -3.0234   H
   514 O513      -5.5801    59.4370     6.0612   O.3
   515 H514      -5.9853    59.2549     6.9308   H
   516 H515      -4.9359    58.7447     6.0458   H
   517 O516      12.6709    33.0435    28.3313   O.3
   518 H517      13.4529    32.9539    27.7427   H
   519 H518      12.8571    33.9502    28.7465   H
   520 O519      35.3131   -20.3737   -15.3098   O.3
   521 H520      35.0948   -21.2282   -15.7050   H
   522 H521      34.6433   -20.3777   -14.6206   H
   523 O522       4.2582    23.4202    24.9833   O.3
   524 H523       4.0421    23.8314    25.8242   H
   525 H524       5.2174    23.2068    25.1913   H
   526 O525       8.9172     7.5754    24.7230   O.3
   527 H526       8.5940     7.6583    23.7458   H
   528 H527       8.1280     7.9992    25.1328   H
   529 O528       5.1162    25.5276    15.3776   O.3
   530 H529       5.0662    26.4941    15.6317   H
   531 H530       5.9524    25.2525    15.8040   H
   532 O531     -14.3851    17.2381    37.4881   O.3
   533 H532     -14.2399    17.0888    38.4478   H
   534 H533     -13.5796    17.6463    37.1026   H
   535 O534     -19.0526    13.2426     7.5123   O.3
   536 H535     -18.7499    12.5053     6.8834   H
   537 H536     -18.5775    13.0311     8.3258   H
   538 O537      22.8953     8.1387     1.1375   O.3
   539 H538      22.6731     9.0926     1.2336   H
   540 H539      22.5610     7.7265     1.9290   H
   541 O540      45.9924   -18.1717    26.9075   O.3
   542 H541      45.8143   -18.8864    27.4912   H
   543 H542      46.2844   -17.4927    27.6069   H
   544 O543       7.7162     3.1804     7.4092   O.3
   545 H544       7.7818     3.7076     6.6587   H
   546 H545       8.5258     2.6066     7.3072   H
   547 O546      15.9729    12.8428     7.8990   O.3
   548 H547      16.6936    13.5180     7.8731   H
   549 H548      15.2737    13.3985     8.2466   H
   550 O549       0.5290    19.8332    20.3863   O.3
   551 H550       1.3038    19.2917    20.0323   H
   552 H551       0.4141    20.6351    19.8135   H
   553 O552     -10.6024    31.7712     1.2701   O.3
   554 H553     -11.4631    32.2441     1.1938   H
   555 H554     -10.8395    30.9267     1.7114   H
   556 O555     -11.0537    35.8802     0.4968   O.3
   557 H556     -10.3244    35.5459     1.0273   H
   558 H557     -11.6089    36.3022     1.2036   H
   559 O558      10.6534    -9.3065    12.7748   O.3
   560 H559       9.7109    -9.2488    12.5603   H
   561 H560      10.5907    -8.9496    13.6904   H
   562 O561       2.1919     0.4546    29.4098   O.3
   563 H562       2.0177     0.5581    28.4708   H
   564 H563       2.7117    -0.3274    29.4006   H
   565 O564      10.5481     9.6216    32.1053   O.3
   566 H565      11.0086     9.0338    32.7959   H
   567 H566      10.0717     8.8727    31.7937   H
   568 O567      14.8559    15.1365    24.2970   O.3
   569 H568      13.9720    15.5762    24.3448   H
   570 H569      14.5519    14.1978    24.2970   H
   571 O570      13.2709   -10.5163    12.0704   O.3
   572 H571      12.4684   -10.1437    12.4473   H
   573 H572      13.5158   -11.1528    12.8356   H
   574 O573      18.5853   -17.0710     4.2489   O.3
   575 H574      18.5488   -16.3672     3.5620   H
   576 H575      19.1479   -17.7290     3.7245   H
   577 O576      22.2584     4.0050   -10.2502   O.3
   578 H577      22.8128     3.6862    -9.4716   H
   579 H578      22.1754     3.0838   -10.7220   H
   580 O579      30.4853    27.4185   -14.5403   O.3
   581 H580      29.7120    27.8469   -15.0498   H
   582 H581      30.9985    27.1084   -15.3245   H
   583 O582      20.9119    18.0619     2.9409   O.3
   584 H583      20.5477    18.9638     2.7855   H
   585 H584      21.2315    17.8313     2.0619   H
   586 O585      -2.2517    10.4870     1.2842   O.3
   587 H586      -1.5863    10.2633     1.9437   H
   588 H587      -3.0309    10.5993     1.8657   H
   589 O588      20.8681    34.3967    27.9811   O.3
   590 H589      21.7219    34.8193    28.1991   H
   591 H590      20.7893    33.7514    28.6613   H
   592 O591      -0.7163     2.4478   -17.4226   O.3
   593 H592      -1.4041     3.1374   -17.5537   H
   594 H593      -1.2098     1.6896   -17.0641   H
   595 O594      28.7522    38.2570     9.2079   O.3
   596 H595      28.5552    38.1511    10.1386   H
   597 H596      28.5221    37.3638     8.9295   H
   598 O597       0.5897    17.4366   -15.2441   O.3
   599 H598       0.7123    16.9321   -14.3949   H
   600 H599      -0.3305    17.3282   -15.4695   H
   601 O600       3.4668    18.4190    -5.3305   O.3
   602 H601       2.6645    17.9132    -5.2674   H
   603 H602       3.8920    17.9829    -6.0630   H
   604 O603      59.0077     9.8752     5.1405   O.3
   605 H604      58.4598     9.2635     5.7338   H
   606 H605      58.6175     9.4992     4.3345   H
   607 O606      21.5274     1.6784     1.7300   O.3
   608 H607      21.0783     0.8643     1.9805   H
   609 H608      22.4817     1.3611     1.8303   H
   610 O609      11.6449    26.7416    14.6044   O.3
   611 H610      10.9255    26.2416    14.2531   H
   612 H611      11.0754    27.4100    15.0653   H
   613 O612       8.0348    35.0347    32.9566   O.3
   614 H613       8.7159    35.1905    32.2828   H
   615 H614       7.2446    34.9152    32.3751   H
   616 O615      40.2593    40.6463    34.3779   O.3
   617 H616      40.4626    40.5303    35.3266   H
   618 H617      40.1582    41.6102    34.3705   H
   619 O618      -5.3720    21.8409    21.0439   O.3
   620 H619      -5.7013    22.6838    20.5585   H
   621 H620      -6.0278    21.2473    20.7361   H
   622 O621      11.9101     3.0592    42.1109   O.3
   623 H622      12.4566     3.7952    41.6806   H
   624 H623      12.7061     2.5757    42.4502   H
   625 O624       8.4065     4.3534     5.1823   O.3
   626 H625       9.3276     4.0883     5.1963   H
   627 H626       8.4566     5.3395     5.1914   H
   628 O627      39.5815    21.3906    25.5764   O.3
   629 H628      39.7119    22.3585    25.5368   H
   630 H629      38.8202    21.3474    26.2163   H
   631 O630       3.7171    14.3440    21.4406   O.3
   632 H631       3.9806    14.4605    22.4061   H
   633 H632       2.7920    13.9764    21.4704   H
   634 O633      44.4255    27.4067    24.5682   O.3
   635 H634      45.1318    27.7882    25.0801   H
   636 H635      44.0305    28.2643    24.3090   H
   637 O636     -13.3701    -5.9708    15.0907   O.3
   638 H637     -14.1803    -5.4755    15.2381   H
   639 H638     -12.7890    -5.1615    14.9835   H
   640 O639       9.2895    27.8550    11.2191   O.3
   641 H640       9.0825    27.6792    12.1640   H
   642 H641      10.2608    27.6939    11.2955   H
   643 O642      -0.7342   -17.5229    -4.9277   O.3
   644 H643      -1.6170   -17.4482    -4.5386   H
   645 H644      -1.0023   -17.8742    -5.7693   H
   646 O645      21.3739    29.7983    16.5903   O.3
   647 H646      20.4269    29.4434    16.6099   H
   648 H647      21.9385    28.9754    16.6539   H
   649 O648      18.8224    -0.4373    26.0987   O.3
   650 H649      19.4354    -0.9156    25.5262   H
   651 H650      19.4195     0.1334    26.6077   H
   652 O651      20.4797    29.4151    27.1867   O.3
   653 H652      20.7818    29.5623    28.0900   H
   654 H653      21.2904    29.6297    26.6629   H
   655 O654      14.7000    32.2611    -1.9697   O.3
   656 H655      14.6739    32.3416    -2.9919   H
   657 H656      15.4585    31.6243    -1.8564   H
   658 O657       5.9856    12.4797    -1.0961   O.3
   659 H658       5.8507    13.1469    -1.7931   H
   660 H659       5.4180    11.7485    -1.4216   H
   661 O660      -4.8946    22.7599    17.6102   O.3
   662 H661      -4.8976    23.2071    18.5045   H
   663 H662      -5.2482    21.9083    17.8500   H
   664 O663      19.8395    32.8218    30.2944   O.3
   665 H664      18.9874    32.5073    29.9540   H
   666 H665      20.0285    32.0863    30.8835   H
   667 O666      24.1732     2.4618    19.0067   O.3
   668 H667      25.0010     1.9193    18.7929   H
   669 H668      24.6163     3.1131    19.5957   H
   670 O669      23.1072    15.3342    42.5230   O.3
   671 H670      22.6361    15.7576    41.7400   H
   672 H671      22.4512    14.6831    42.8933   H
   673 O672     -11.8597    21.7640    40.3408   O.3
   674 H673     -12.0127    20.8601    40.0246   H
   675 H674     -12.3556    21.6919    41.2408   H
   676 O675      12.7641    -8.9581     4.2007   O.3
   677 H676      13.4228    -8.5935     4.8616   H
   678 H677      13.4694    -9.4612     3.8071   H
   679 O678      10.6007    16.2038    22.3425   O.3
   680 H679      11.1986    15.8060    21.7033   H
   681 H680       9.9335    15.5299    22.1611   H
   682 O681      13.5931    33.5898   -12.0384   O.3
   683 H682      13.0166    33.9058   -12.6931   H
   684 H683      14.0978    32.9563   -12.5407   H
   685 O684      39.7204     5.8696    53.6418   O.3
   686 H685      39.5809     6.7955    53.9419   H
   687 H686      39.9932     5.4954    54.4780   H
   688 O687      20.0316   -12.2289    60.2740   O.3
   689 H688      20.4287   -11.4081    59.8405   H
   690 H689      19.1530   -11.8791    60.4412   H
   691 O690      11.0688     3.9186     6.4724   O.3
   692 H691      11.9953     3.5669     6.3865   H
   693 H692      10.6207     3.0839     6.8473   H
   694 O693       7.0291    24.5788    29.1151   O.3
   695 H694       6.5507    25.0146    29.8314   H
   696 H695       7.2446    23.7328    29.5841   H
   697 O696      59.9260     2.8858     5.9564   O.3
   698 H697      60.0609     2.2677     6.7043   H
   699 H698      59.5803     3.6754     6.5306   H
   700 O699      52.1871    15.5616    31.3680   O.3
   701 H700      53.1125    15.2945    31.2115   H
   702 H701      52.2753    16.2379    32.0543   H
   703 O702      -6.0162   -10.7354    41.0611   O.3
   704 H703      -5.2327   -10.1276    41.0935   H
   705 H704      -6.4764   -10.4129    41.8765   H
   706 O705      26.8374    53.8814    32.5748   O.3
   707 H706      27.7458    53.7174    32.4421   H
   708 H707      26.5070    53.1842    31.9782   H
   709 O708      31.9249    33.4572   -17.7206   O.3
   710 H709      32.4486    32.6644   -17.4480   H
   711 H710      32.4898    34.1561   -17.4639   H
   712 O711      -1.9997    -6.5935    -9.3245   O.3
   713 H712      -1.1224    -6.1686    -9.3065   H
   714 H713      -2.2912    -6.2650   -10.2144   H
   715 O714     -13.0998    35.2703    13.2959   O.3
   716 H715     -13.8220    34.5964    13.2593   H
   717 H716     -12.8662    35.3617    12.3502   H
   718 O717      21.6289    20.2290   -10.0297   O.3
   719 H718      20.7590    20.3055   -10.4164   H
   720 H719      21.5009    19.7101    -9.1989   H
   721 O720      -1.3543    25.0631    15.9900   O.3
   722 H721      -1.2922    24.8726    15.0272   H
   723 H722      -0.5407    25.4840    16.2189   H
   724 O723       7.7038    17.4749     0.8410   O.3
   725 H724       7.8976    17.4878    -0.1126   H
   726 H725       7.3649    18.3755     0.9848   H
   727 O726      13.2925    32.1555    46.3124   O.3
   728 H727      12.3876    32.3274    46.3817   H
   729 H728      13.4175    32.7527    45.5747   H
   730 O729      17.3862    11.4794    29.4668   O.3
   731 H730      17.2579    12.4163    29.1882   H
   732 H731      16.4835    11.4287    29.8176   H
   733 O732      18.7481    28.5989    17.2133   O.3
   734 H733      18.6886    27.6482    17.4081   H
   735 H734      18.9539    28.9352    18.0672   H
   736 O735      25.3653    -0.3629     8.8850   O.3
   737 H736      25.6206     0.4726     8.4895   H
   738 H737      25.6254    -1.0518     8.2602   H
   739 O738      -3.5824    30.7991     2.6044   O.3
   740 H739      -2.7969    30.2385     2.6835   H
   741 H740      -3.8693    30.8859     3.5170   H
   742 O741      35.2737    20.2362    14.8986   O.3
   743 H742      36.2116    20.0437    15.0059   H
   744 H743      34.8864    19.4245    14.5720   H
   745 O744      21.1003    10.5395    28.8479   O.3
   746 H745      20.7993    10.7430    27.9602   H
   747 H746      21.4875    11.3428    29.1358   H
   748 O747      21.6010    23.5767    15.4544   O.3
   749 H748      22.0661    23.2174    16.2154   H
   750 H749      20.7300    23.4698    15.9001   H
   751 O750      -6.9156    27.5912    23.4782   O.3
   752 H751      -7.4133    27.9944    24.2017   H
   753 H752      -6.6224    28.4405    23.1410   H
   754 O753       8.3221    17.1441    37.6147   O.3
   755 H754       9.2627    16.9377    37.6466   H
   756 H755       8.1286    17.0409    36.6946   H
   757 O756       5.0504    35.2183     7.5790   O.3
   758 H757       5.2277    36.1677     7.8490   H
   759 H758       5.8774    34.8439     7.9325   H
   760 O759     -34.9648   -14.1327    15.5195   O.3
   761 H760     -35.8804   -14.0396    15.3086   H
   762 H761     -34.9531   -14.3761    16.4254   H
   763 O762       9.4205    37.4052   -10.1973   O.3
   764 H763       9.2382    37.7450    -9.3126   H
   765 H764       8.7491    37.7872   -10.7587   H
   766 O765      35.0620    33.3463    15.5540   O.3
   767 H766      35.9912    33.4243    15.3652   H
   768 H767      34.9635    34.0489    16.1748   H
   769 O768      30.1793   -16.0615    29.7351   O.3
   770 H769      30.4664   -16.9894    29.5087   H
   771 H770      31.0371   -15.5800    29.9088   H
   772 O771      28.8647   -11.5649     8.3715   O.3
   773 H772      29.2668   -12.2552     8.9630   H
   774 H773      29.2660   -11.8150     7.5440   H
   775 O774       1.8984    13.0955     9.3604   O.3
   776 H775       2.2205    13.3897     8.4435   H
   777 H776       2.0856    12.1907     9.2035   H
   778 O777       8.3769   -10.8585    32.1759   O.3
   779 H778       8.7935   -10.0311    31.9495   H
   780 H779       9.0639   -11.3918    31.6504   H
   781 O780      25.2911    18.5205    44.1803   O.3
   782 H781      25.1701    19.3811    44.5876   H
   783 H782      24.5539    18.0366    44.6583   H
   784 O783      18.1943    -2.9265     7.8949   O.3
   785 H784      17.9220    -3.8709     7.9821   H
   786 H785      17.4469    -2.4378     8.2892   H
   787 O786      10.1647    35.1045    28.6653   O.3
   788 H787       9.2357    35.2906    28.4581   H
   789 H788      10.7220    35.3834    27.9407   H
   790 O789      28.9007     7.1531    23.9238   O.3
   791 H790      29.3244     6.2801    23.9943   H
   792 H791      28.7381     7.1331    22.9642   H
   793 O792      18.8899    -4.0696    16.5063   O.3
   794 H793      18.6375    -3.3534    17.1030   H
   795 H794      18.3286    -3.9071    15.7482   H
   796 O795      17.0280    34.3182    10.4094   O.3
   797 H796      17.5292    35.0787    10.8130   H
   798 H797      17.3539    33.5230    10.8779   H
   799 O798      15.0478   -15.4183    11.7182   O.3
   800 H799      15.2314   -15.9391    10.8951   H
   801 H800      15.4319   -16.0258    12.3963   H
   802 O801      -1.2729    57.8185    35.8334   O.3
   803 H802      -0.7902    58.1787    36.5500   H
   804 H803      -0.4503    57.7270    35.2327   H
   805 O804       3.3703    15.7318    26.5831   O.3
   806 H805       2.6811    14.9859    26.4603   H
   807 H806       3.9473    15.3091    27.2672   H
   808 O807      18.1434   -25.3211    10.2031   O.3
   809 H808      18.0849   -24.5944     9.5597   H
   810 H809      19.0674   -25.5173    10.2497   H
   811 O810      15.5616     7.1703    -1.7933   O.3
   812 H811      16.0562     6.3481    -1.8600   H
   813 H812      15.8468     7.4851    -0.9125   H
   814 O813      21.1851     1.9813     8.1972   O.3
   815 H814      21.4255     1.8584     9.1208   H
   816 H815      20.8134     1.1421     8.0789   H
   817 O816      15.3114    19.3496     8.8419   O.3
   818 H817      14.5715    19.4837     9.4939   H
   819 H818      16.0618    19.7130     9.3771   H
   820 O819      12.8055    -8.6428    24.0477   O.3
   821 H820      12.4237    -8.0740    24.6842   H
   822 H821      11.9980    -8.7915    23.4795   H
   823 O822      24.2958     6.2465   -10.7746   O.3
   824 H823      23.5262     5.6759   -10.7294   H
   825 H824      23.8539     7.0766   -10.5891   H
   826 O825       3.6886    22.5308    11.5312   O.3
   827 H826       3.0545    23.1232    11.1272   H
   828 H827       4.4502    23.1852    11.5833   H
   829 O828      -2.7204    11.2593    15.6323   O.3
   830 H829      -3.5804    10.8834    15.4578   H
   831 H830      -2.2604    11.0852    14.7934   H
   832 O831       4.2415    16.7648    -7.5173   O.3
   833 H832       3.4062    16.9154    -7.9468   H
   834 H833       4.3063    15.8175    -7.4028   H
   835 O834      -4.3466   -14.8024    25.8807   O.3
   836 H835      -3.6947   -14.8080    26.6154   H
   837 H836      -4.2971   -13.8906    25.6356   H
   838 O837      10.9832     4.3651    30.2946   O.3
   839 H838      11.8023     4.4997    30.7279   H
   840 H839      11.2283     4.9142    29.5242   H
   841 O840      28.8496     7.6015    21.1770   O.3
   842 H841      28.5967     8.3568    20.5722   H
   843 H842      28.7821     6.8254    20.6074   H
   844 O843     -24.3236    -5.5910     4.0028   O.3
   845 H844     -23.4765    -5.0991     4.2828   H
   846 H845     -24.8847    -4.8125     3.9381   H
   847 O846      35.7471     7.9263    27.9601   O.3
   848 H847      36.1936     8.7648    28.0056   H
   849 H848      35.0775     8.3131    27.3524   H
   850 O849      33.8567     5.8759     0.6002   O.3
   851 H850      34.7340     5.4821     0.8878   H
   852 H851      33.9347     6.7676     0.9421   H
   853 O852      26.6862    26.8921    26.4145   O.3
   854 H853      26.4301    27.4641    27.1256   H
   855 H854      27.4449    27.3386    25.9792   H
   856 O855      -0.8406    20.8830    13.9994   O.3
   857 H856      -0.3169    20.2660    14.5447   H
   858 H857      -0.1859    21.4832    13.6537   H
   859 O858       5.3154    24.3707    -5.4399   O.3
   860 H859       4.9676    24.0893    -4.5650   H
   861 H860       4.5003    24.3212    -5.9414   H
   862 O861      24.9627    31.6223     9.5775   O.3
   863 H862      25.0501    32.5155     9.1916   H
   864 H863      25.1634    31.0205     8.8872   H
   865 O864     -12.1682     0.6787    37.1105   O.3
   866 H865     -11.8508     1.1659    36.3340   H
   867 H866     -11.4094     0.8920    37.6195   H
   868 O867      29.0666    32.2508     6.1920   O.3
   869 H868      29.4342    31.3714     5.9868   H
   870 H869      29.8860    32.4892     6.6922   H
   871 O870     -11.2537     2.4316    17.0213   O.3
   872 H871     -10.4495     1.8802    17.1506   H
   873 H872     -10.9666     3.3340    17.2930   H
   874 O873      33.3247    35.8978    10.7773   O.3
   875 H874      34.2371    35.9852    11.1404   H
   876 H875      33.3314    36.7726    10.3196   H
   877 O876       7.4826    10.7307    15.3868   O.3
   878 H877       8.0561    10.3709    14.7055   H
   879 H878       7.2577    11.5821    14.9468   H
   880 O879      -7.5038    19.7021    -7.4849   O.3
   881 H880      -8.3567    20.0590    -7.2716   H
   882 H881      -7.7504    18.8071    -7.2043   H
   883 O882       8.6080    23.8368    18.5579   O.3
   884 H883       7.8323    23.5205    19.1151   H
   885 H884       9.1022    24.3306    19.2678   H
   886 O885      33.5574     9.9703     8.8487   O.3
   887 H886      33.8914    10.7407     8.3087   H
   888 H887      32.6995    10.3096     9.0756   H
   889 O888      10.3334    12.6457    -6.5261   O.3
   890 H889      10.6086    12.2763    -5.6134   H
   891 H890      10.2561    11.7866    -7.0506   H
   892 O891      29.8666    26.5733    17.9772   O.3
   893 H892      29.4774    26.3211    18.8359   H
   894 H893      30.5836    27.1736    18.3339   H
   895 O894      31.5954    23.7302    -9.2019   O.3
   896 H895      31.3392    23.5006    -8.2740   H
   897 H896      31.1182    24.5271    -9.4267   H
   898 O897      20.8672    15.3674    24.7712   O.3
   899 H898      20.7966    15.3870    25.7434   H
   900 H899      20.8444    16.3235    24.7371   H
   901 O900      23.1692    32.3642    28.5694   O.3
   902 H901      22.4835    31.7489    28.7819   H
   903 H902      23.7321    32.0298    29.3146   H
   904 O903      17.3355    15.3407    14.0497   O.3
   905 H904      17.9187    15.5737    13.3278   H
   906 H905      17.8841    14.5870    14.4351   H
   907 O906       5.1596    21.0085    20.2784   O.3
   908 H907       4.2379    20.7429    19.9963   H
   909 H908       5.4545    20.1792    20.7320   H
   910 O909      13.2059    21.6292    59.2016   O.3
   911 H910      13.2990    20.7201    59.5164   H
   912 H911      12.2466    21.7651    59.3350   H
   913 O912      26.7319    29.4903     2.9089   O.3
   914 H913      27.6246    29.7643     3.2505   H
   915 H914      26.5665    28.8636     3.6002   H
   916 O915       6.1686    10.3483     4.9471   O.3
   917 H916       5.7122     9.5513     4.6485   H
   918 H917       6.6014     9.9319     5.6599   H
   919 O918       3.0604    18.3308     3.7278   O.3
   920 H919       2.6320    19.2076     3.4826   H
   921 H920       3.0123    17.7854     2.9451   H
   922 O921      14.0937     9.8536    20.8293   O.3
   923 H922      13.6326     9.4761    20.0526   H
   924 H923      15.0096     9.5753    20.7457   H
   925 O924      22.8199    18.2677    21.7922   O.3
   926 H925      22.2851    18.6559    22.5364   H
   927 H926      22.5621    18.8827    21.1318   H
   928 O927      36.0065    11.2435    -3.5883   O.3
   929 H928      36.9854    11.4537    -3.6946   H
   930 H929      35.6192    12.1164    -3.5777   H
   931 O930      -5.4062    27.2903     8.7272   O.3
   932 H931      -5.8024    27.4156     9.6235   H
   933 H932      -4.4768    27.5068     8.8640   H
   934 O933      33.9912    24.6127    12.8779   O.3
   935 H934      34.6300    23.9714    13.2158   H
   936 H935      33.6877    24.8475    13.7884   H
   937 O936       4.1963    12.4015     5.2033   O.3
   938 H937       5.0138    12.0571     5.5533   H
   939 H938       3.6408    11.6206     5.2842   H
   940 O939      14.5837    26.9421    27.5997   O.3
   941 H940      15.3722    26.4565    27.8777   H
   942 H941      14.3708    26.5488    26.7697   H
   943 O942       0.7818    19.1226    38.5043   O.3
   944 H943       0.3455    19.9731    38.5453   H
   945 H944       0.5675    18.6486    39.2936   H
   946 O945      29.0675    -3.9099    38.9729   O.3
   947 H946      28.8461    -3.4469    38.0610   H
   948 H947      29.8202    -3.2910    39.1988   H
   949 O948      22.7427    30.0775    26.1008   O.3
   950 H949      23.0433    29.5821    25.3536   H
   951 H950      22.7021    30.9586    25.7663   H
   952 O951       8.1469     5.2766    20.7306   O.3
   953 H952       7.7185     4.9641    19.9814   H
   954 H953       8.2840     4.3986    21.1702   H
   955 O954     -11.1200    16.7584    -1.8518   O.3
   956 H955     -10.9738    17.3438    -2.6231   H
   957 H956     -12.0269    16.9687    -1.6828   H
   958 O957      19.2239    22.2055    -3.2316   O.3
   959 H958      18.9359    22.9110    -3.8337   H
   960 H959      20.1280    22.1798    -3.5451   H
   961 O960      17.8287     4.8509    17.6655   O.3
   962 H961      17.1980     5.1529    18.3258   H
   963 H962      18.6167     4.8356    18.2241   H
   964 O963       4.4367    26.9740     1.4438   O.3
   965 H964       5.0381    26.6235     2.1327   H
   966 H965       4.7109    27.9148     1.5180   H
   967 O966      31.0161    44.9067   -12.2769   O.3
   968 H967      30.9203    45.6791   -12.9249   H
   969 H968      30.1478    44.5462   -12.3039   H
   970 O969      23.5878    28.3690    13.9915   O.3
   971 H970      24.4888    28.0713    13.9153   H
   972 H971      23.5489    28.6041    14.9426   H
   973 O972      -2.7516    20.9365    39.9865   O.3
   974 H973      -1.9901    20.9749    40.6116   H
   975 H974      -2.2705    21.1688    39.1597   H
   976 O975      12.5963    18.1519   -12.7006   O.3
   977 H976      11.9615    18.8780   -12.9949   H
   978 H977      13.4226    18.6531   -12.4828   H
   979 O978      24.1635    -2.8233    21.6985   O.3
   980 H979      23.3963    -3.1922    22.1683   H
   981 H980      24.5236    -2.4135    22.4641   H
   982 O981      -7.3894    39.0035    -8.9993   O.3
   983 H982      -7.1132    39.8489    -9.4150   H
   984 H983      -6.7820    39.0500    -8.2323   H
   985 O984       3.0937    30.5311   -11.2812   O.3
   986 H985       3.5570    29.9127   -11.8603   H
   987 H986       3.6666    31.3110   -11.5535   H
   988 O987      -6.6640    -1.1711    29.8460   O.3
   989 H988      -6.0417    -1.2669    30.6252   H
   990 H989      -6.0815    -1.1559    29.0784   H
   991 O990      15.7387    -1.9964     8.9973   O.3
   992 H991      15.4174    -1.9612     9.9400   H
   993 H992      15.7825    -1.0443     8.9607   H
   994 O993       8.4286   -23.3300     0.9277   O.3
   995 H994       8.4119   -23.8931     1.6755   H
   996 H995       9.1279   -22.7184     1.2495   H
   997 O996       6.1682    -8.8061    37.4400   O.3
   998 H997       6.5031    -9.6450    37.0586   H
   999 H998       5.2869    -8.8207    36.9833   H
  1000 O999      22.9483   -19.9513    19.7568   O.3
  1001 H1000     23.1548   -19.1478    20.2945   H
  1002 H1001     22.0850   -20.1844    20.1975   H
  1003 O1002     30.3281    39.4214    16.4353   O.3
  1004 H1003     29.9854    38.7136    16.9610   H
  1005 H1004     30.4486    40.0363    17.1412   H
  1006 O1005    -11.3915    16.6603    22.5166   O.3
  1007 H1006    -11.9153    17.4598    22.7363   H
  1008 H1007    -11.8031    16.1677    23.2711   H
  1009 O1008      0.2986    13.6589     1.0532   O.3
  1010 H1009      0.4857    13.8878     0.1540   H
  1011 H1010      1.0484    13.0433     1.2435   H
  1012 O1011      3.2818    44.0291    34.3948   O.3
  1013 H1012      4.1560    43.9503    33.9459   H
  1014 H1013      3.5826    43.5867    35.1845   H
  1015 O1014    -22.9241     1.5491    30.2965   O.3
  1016 H1015    -23.4429     2.2951    29.7828   H
  1017 H1016    -22.2661     2.1111    30.7401   H
  1018 O1017     32.0657    -8.4057    -0.8297   O.3
  1019 H1018     32.0737    -8.9653    -1.6223   H
  1020 H1019     31.2684    -8.6303    -0.3087   H
  1021 O1020     40.0076    -2.2453    28.7291   O.3
  1022 H1021     39.4492    -1.5109    28.7394   H
  1023 H1022     40.8806    -1.8723    28.4707   H
  1024 O1023      8.1978     1.0979    19.1667   O.3
  1025 H1024      8.6012     0.8041    18.3213   H
  1026 H1025      7.3367     1.3936    18.8903   H
  1027 O1026     14.2678    50.9347    26.9770   O.3
  1028 H1027     13.5161    51.1904    26.4479   H
  1029 H1028     13.6687    50.5610    27.7185   H
  1030 O1029     24.8737    27.6208     4.7426   O.3
  1031 H1030     25.4941    26.9187     4.7915   H
  1032 H1031     24.0711    27.2108     4.3852   H
  1033 O1032     33.8662     2.3683   -14.3693   O.3
  1034 H1033     33.8360     3.2418   -13.9863   H
  1035 H1034     34.7427     2.4111   -14.8550   H
  1036 O1035     26.7509    21.3895     1.6310   O.3
  1037 H1036     26.4733    20.5763     2.0176   H
  1038 H1037     27.2243    21.0870     0.8509   H
  1039 O1038      3.9668    27.8863    -7.7320   O.3
  1040 H1039      4.7915    27.4532    -7.5453   H
  1041 H1040      4.1790    28.8230    -7.5906   H
  1042 O1041    -18.6116   -17.0906     6.2847   O.3
  1043 H1042    -19.2728   -17.8167     6.3033   H
  1044 H1043    -18.1477   -17.1376     5.4334   H
  1045 O1044     48.0067    18.6095     7.9727   O.3
  1046 H1045     47.0699    18.4266     8.2159   H
  1047 H1046     48.1652    18.7409     8.9506   H
  1048 O1047     -5.5604    34.8496    36.1785   O.3
  1049 H1048     -5.9969    35.7262    36.1823   H
  1050 H1049     -6.0606    34.3823    36.9257   H
  1051 O1050     29.7803    41.4019     6.8244   O.3
  1052 H1051     30.0745    40.5687     6.3694   H
  1053 H1052     29.2713    41.7515     6.1753   H
  1054 O1053      0.7394    29.3378     5.9394   O.3
  1055 H1054      1.1373    28.4632     6.1907   H
  1056 H1055      1.1502    29.5517     5.0681   H
  1057 O1056     -2.2551     0.8718     0.1744   O.3
  1058 H1057     -1.9457     1.6510    -0.2816   H
  1059 H1058     -1.8956     1.0846     1.1073   H
  1060 O1059      4.7749     7.9152    14.1686   O.3
  1061 H1060      4.7071     8.8404    14.3253   H
  1062 H1061      4.3591     7.6314    15.0375   H
  1063 O1062    -12.5356     6.2717     8.1920   O.3
  1064 H1063    -11.9407     6.8470     7.6735   H
  1065 H1064    -12.2166     6.5776     9.0477   H
  1066 O1065     16.0105    38.8523     9.6442   O.3
  1067 H1066     15.9565    39.3586     8.7708   H
  1068 H1067     16.8336    38.3486     9.5006   H
  1069 O1068     12.0345     2.3208    26.8237   O.3
  1070 H1069     11.8720     2.7035    25.9880   H
  1071 H1070     11.8869     3.1529    27.3312   H
  1072 O1071      9.1515    27.9261    21.9406   O.3
  1073 H1072      8.4261    28.1589    22.5802   H
  1074 H1073      8.6354    28.1286    21.1266   H
  1075 O1074     28.3311     9.0169    11.4944   O.3
  1076 H1075     27.9658     8.3275    10.8968   H
  1077 H1076     29.1266     8.5163    11.7217   H
  1078 O1077     15.4274    32.2549    23.5029   O.3
  1079 H1078     16.3721    32.5911    23.4597   H
  1080 H1079     15.1949    32.6913    22.6891   H
  1081 O1080     16.3062    10.4875    24.9675   O.3
  1082 H1081     16.5326     9.7179    24.4161   H
  1083 H1082     16.9005    10.2217    25.7034   H
  1084 O1083     46.3213   -10.5513    15.8711   O.3
  1085 H1084     46.1129   -11.1168    16.6345   H
  1086 H1085     45.9156   -11.0643    15.1662   H
  1087 O1086      5.2273    30.0497    18.5855   O.3
  1088 H1087      4.4970    30.1405    18.0182   H
  1089 H1088      5.3528    30.9596    18.8765   H
  1090 O1089     22.6072    10.2983    43.1788   O.3
  1091 H1090     22.2338    10.9491    42.5644   H
  1092 H1091     21.9116    10.1511    43.8603   H
  1093 O1092     14.7853    21.8614    35.4270   O.3
  1094 H1093     13.9787    21.3890    35.3912   H
  1095 H1094     14.4572    22.7522    35.7317   H
  1096 O1095     -8.8234    -5.3534    -8.6173   O.3
  1097 H1096     -9.5471    -5.4748    -7.9738   H
  1098 H1097     -8.9580    -6.1579    -9.1674   H
  1099 O1098    -10.7505    18.8751    28.3301   O.3
  1100 H1099    -10.0340    19.3662    27.8211   H
  1101 H1100    -11.4679    19.4626    27.8771   H
  1102 O1101     22.8743    17.2574    44.6451   O.3
  1103 H1102     23.0487    16.7459    43.8431   H
  1104 H1103     22.7981    16.5284    45.3045   H
  1105 O1104     16.8024    22.7708    22.1043   O.3
  1106 H1105     16.2866    22.1596    21.5480   H
  1107 H1106     16.3981    22.6681    23.0027   H
  1108 O1107      4.9258    26.8143    35.1254   O.3
  1109 H1108      4.8933    27.6317    35.6825   H
  1110 H1109      5.2213    27.1102    34.2945   H
  1111 O1110      7.5170    25.7143   -11.2342   O.3
  1112 H1111      8.1123    26.4299   -11.2313   H
  1113 H1112      8.1328    25.0021   -10.9948   H
  1114 O1113     10.8246    49.7392    21.8282   O.3
  1115 H1114     10.2760    50.4933    22.1987   H
  1116 H1115     10.0733    49.1327    21.9402   H
  1117 O1116     11.7071    -6.7481    -8.9626   O.3
  1118 H1117     12.4398    -6.2900    -9.3524   H
  1119 H1118     11.6918    -6.4012    -8.0765   H
  1120 O1119     44.1314     4.5836     4.0517   O.3
  1121 H1120     44.6442     4.0315     4.6386   H
  1122 H1121     44.7508     5.2975     4.0082   H
  1123 O1122     21.5400    24.8950    -5.0096   O.3
  1124 H1123     21.5937    25.8205    -5.0228   H
  1125 H1124     20.6335    24.6865    -5.0201   H
  1126 O1125     17.5027   -15.3699    23.7928   O.3
  1127 H1126     17.4873   -14.9337    24.6632   H
  1128 H1127     17.2909   -16.2544    24.2405   H
  1129 O1128     30.9467    15.9978     2.1591   O.3
  1130 H1129     31.1333    15.3805     2.8843   H
  1131 H1130     31.7189    15.7994     1.6389   H
  1132 O1131     -9.0729     4.7904     5.9868   O.3
  1133 H1132     -9.2799     5.3808     5.2316   H
  1134 H1133     -8.4736     4.1060     5.6427   H
  1135 O1134      6.3641    19.9740    28.4407   O.3
  1136 H1135      5.5509    19.8082    27.8263   H
  1137 H1136      6.9504    20.4340    27.8744   H
  1138 O1137     25.6302    19.2859    -5.7609   O.3
  1139 H1138     25.4274    20.2351    -6.0161   H
  1140 H1139     24.8429    18.8529    -6.0799   H
  1141 O1140     21.1709    12.9277    10.5111   O.3
  1142 H1141     20.6620    13.7652    10.4580   H
  1143 H1142     20.5458    12.2566    10.1052   H
  1144 O1143     -4.3551    17.6185    37.3593   O.3
  1145 H1144     -4.5022    16.6769    37.2658   H
  1146 H1145     -3.6595    17.6898    36.6781   H
  1147 O1146     -5.9984    24.5311     8.4955   O.3
  1148 H1147     -5.9046    24.5775     9.5411   H
  1149 H1148     -5.8104    25.4315     8.3955   H
  1150 O1149     14.0312     1.4050    17.3205   O.3
  1151 H1150     13.8164     2.3052    17.5818   H
  1152 H1151     14.9791     1.4583    17.4226   H
  1153 O1152     10.6124   -16.4725    -3.9945   O.3
  1154 H1153     10.9543   -15.9299    -3.2422   H
  1155 H1154     11.3394   -17.0796    -4.1230   H
  1156 O1155     19.8596    22.1942   -16.3076   O.3
  1157 H1156     20.1079    21.9545   -15.3824   H
  1158 H1157     20.6753    22.5069   -16.6639   H
  1159 O1158      1.7588     4.3739    54.8143   O.3
  1160 H1159      2.5678     4.9030    54.5043   H
  1161 H1160      1.0426     5.0036    54.5851   H
  1162 O1161    -23.3222     3.3698    24.0532   O.3
  1163 H1162    -23.2612     2.8235    24.7830   H
  1164 H1163    -23.1678     2.7119    23.3455   H
  1165 O1164     27.3672    23.8873    30.4610   O.3
  1166 H1165     27.0265    24.0670    29.5055   H
  1167 H1166     27.2897    22.9375    30.4288   H
  1168 O1167      3.2418    23.7750    35.3205   O.3
  1169 H1168      2.4258    23.9579    34.8554   H
  1170 H1169      2.8754    23.0360    35.8865   H
  1171 O1170     -9.5283    13.3209    43.1878   O.3
  1172 H1171     -9.3040    12.5994    42.5744   H
  1173 H1172    -10.0325    12.8270    43.8569   H
  1174 O1173     20.2662    22.8139     7.1334   O.3
  1175 H1174     20.6575    23.5262     7.6529   H
  1176 H1175     19.4614    22.7240     7.6634   H
  1177 O1176    -12.7990    11.6139     2.9353   O.3
  1178 H1177    -13.7137    11.4237     3.2848   H
  1179 H1178    -12.4351    12.0947     3.7289   H
  1180 O1179     38.2414    22.0635   -11.3533   O.3
  1181 H1180     38.4010    21.7195   -10.4753   H
  1182 H1181     37.5910    22.7124   -11.0564   H
  1183 O1182     24.3621    16.0761    21.6294   O.3
  1184 H1183     23.9240    16.9753    21.6770   H
  1185 H1184     23.6961    15.5044    22.0932   H
  1186 O1185      3.3451     4.6843   -20.3978   O.3
  1187 H1186      3.4300     4.6431   -19.4190   H
  1188 H1187      3.7194     5.6345   -20.3993   H
  1189 O1188      7.6525    41.4688     0.9126   O.3
  1190 H1189      7.3348    41.2080     1.7673   H
  1191 H1190      7.0622    40.8857     0.3547   H
  1192 O1191     -5.9714    29.0552    -7.8823   O.3
  1193 H1192     -5.1509    28.6766    -7.5679   H
  1194 H1193     -5.6140    29.8884    -8.1210   H
  1195 O1194     24.9213    17.3534     5.2287   O.3
  1196 H1195     23.9408    17.4283     5.4810   H
  1197 H1196     25.2955    17.6456     6.0882   H
  1198 O1197      0.4968    -2.5331    -7.8572   O.3
  1199 H1198      0.9053    -2.2602    -7.0305   H
  1200 H1199     -0.4725    -2.6009    -7.7412   H
  1201 O1200     21.4354    19.2707    23.9481   O.3
  1202 H1201     20.6403    18.9050    24.4072   H
  1203 H1202     21.8485    19.7670    24.6615   H
  1204 O1203     11.0084     0.3524    18.4105   O.3
  1205 H1204     11.8522     0.6923    18.0933   H
  1206 H1205     10.9853     0.8214    19.2453   H
  1207 O1206     18.7459    -3.7387    -5.1957   O.3
  1208 H1207     18.3543    -2.9341    -5.4906   H
  1209 H1208     17.9893    -4.2529    -5.5750   H
  1210 O1209    -17.8523    15.5078    17.5718   O.3
  1211 H1210    -18.1650    14.8298    18.1998   H
  1212 H1211    -18.4614    15.4448    16.7937   H
  1213 O1212     20.5282    18.2227    38.9886   O.3
  1214 H1213     19.8373    18.1497    39.6594   H
  1215 H1214     21.2384    17.8769    39.5613   H
  1216 O1215      2.4917    29.8079   -29.2589   O.3
  1217 H1216      2.3028    30.7839   -29.3150   H
  1218 H1217      3.4804    29.7710   -29.2863   H
  1219 O1218     -7.5121    15.5812     8.3161   O.3
  1220 H1219     -7.7513    15.3867     9.2578   H
  1221 H1220     -7.3399    16.5836     8.4008   H
  1222 O1221      9.7717    12.6265    31.3350   O.3
  1223 H1222      8.8592    12.7140    30.9202   H
  1224 H1223      9.9008    13.5012    31.6554   H
  1225 O1224      6.2183    19.5231    45.4689   O.3
  1226 H1225      5.9986    20.3089    46.0405   H
  1227 H1226      6.5104    19.9167    44.6322   H
  1228 O1227     25.8533    17.4198    11.6395   O.3
  1229 H1228     25.7299    17.7578    10.7875   H
  1230 H1229     25.4166    17.9199    12.2929   H
  1231 O1230     18.1450     6.4666     3.6875   O.3
  1232 H1231     19.0259     6.3201     3.2381   H
  1233 H1232     18.1888     7.4231     3.7978   H
  1234 O1233     24.3423    25.3038    17.3133   O.3
  1235 H1234     25.2933    25.2414    17.0500   H
  1236 H1235     23.9423    24.4623    17.1319   H
  1237 O1236     26.7383    29.1978    15.8940   O.3
  1238 H1237     27.2155    28.3741    15.9054   H
  1239 H1238     27.2888    29.8419    15.4736   H
  1240 O1239     22.2243    17.7417    33.6137   O.3
  1241 H1240     22.0998    17.9446    32.6646   H
  1242 H1241     21.5968    18.3672    33.9664   H
  1243 O1242     19.1758     4.3081    -3.5946   O.3
  1244 H1243     18.5708     3.7736    -3.0939   H
  1245 H1244     19.1494     5.0682    -2.9765   H
  1246 O1245      0.7432    -0.6415    15.6971   O.3
  1247 H1246      1.5542    -0.5756    15.1760   H
  1248 H1247      1.1397    -0.8526    16.5878   H
  1249 O1248     30.9071    21.0960    22.9843   O.3
  1250 H1249     31.2733    21.5041    23.7386   H
  1251 H1250     31.2370    20.1856    23.1352   H
  1252 O1251      8.7420    25.8506     3.4483   O.3
  1253 H1252      7.9186    26.4143     3.3431   H
  1254 H1253      8.8456    25.9527     4.4370   H
  1255 O1254     -4.8677    13.2412     3.7756   O.3
  1256 H1255     -4.3425    14.0441     3.4980   H
  1257 H1256     -4.9597    13.4409     4.7597   H
  1258 O1257     38.4355    46.8092    -5.1120   O.3
  1259 H1258     38.4408    45.8146    -5.3278   H
  1260 H1259     38.2565    47.1890    -6.0015   H
  1261 O1260     34.8839    23.2090     6.9925   O.3
  1262 H1261     34.9155    23.7953     7.7850   H
  1263 H1262     34.9946    22.3781     7.3798   H
  1264 O1263     22.6697     4.1839    20.6977   O.3
  1265 H1264     23.6578     4.1925    20.6789   H
  1266 H1265     22.4889     4.1896    21.6795   H
  1267 O1266     31.3022    22.6944    28.1623   O.3
  1268 H1267     30.5072    22.1743    28.3969   H
  1269 H1268     31.8439    21.9729    27.7389   H
  1270 O1269     13.9644   -13.5681    36.8341   O.3
  1271 H1270     13.8308   -13.0693    35.9561   H
  1272 H1271     13.8195   -12.7109    37.4025   H
  1273 O1272     -1.2930    15.1666    20.5031   O.3
  1274 H1273     -2.1607    15.3419    20.9626   H
  1275 H1274     -0.9462    16.0970    20.5529   H
  1276 O1275     -5.9163    -1.2085    32.3215   O.3
  1277 H1276     -6.1151    -1.0153    33.2652   H
  1278 H1277     -5.9886    -2.1685    32.3861   H
  1279 O1278     20.8008    18.4803    15.2634   O.3
  1280 H1279     21.5781    18.3900    15.9044   H
  1281 H1280     19.9902    18.0632    15.5346   H
  1282 O1281     -5.1789    21.7960   -16.6025   O.3
  1283 H1282     -4.2915    21.4813   -16.3599   H
  1284 H1283     -5.3350    21.1168   -17.2821   H
  1285 O1284      0.9627   -12.4404     4.6323   O.3
  1286 H1285      1.7682   -11.9865     5.0005   H
  1287 H1286      0.4276   -11.6366     4.3783   H
  1288 O1287     25.4211    13.6748    16.6676   O.3
  1289 H1288     25.5035    14.2107    15.8610   H
  1290 H1289     25.3479    12.7698    16.2941   H
  1291 O1290     17.9308    42.6621    35.3621   O.3
  1292 H1291     17.7772    42.9482    34.4281   H
  1293 H1292     18.8739    42.8304    35.4050   H
  1294 O1293     33.7428    16.9861    33.0508   O.3
  1295 H1294     33.1413    17.4911    32.4724   H
  1296 H1295     34.5729    17.0146    32.4893   H
  1297 O1296     30.3594     3.3791    40.2133   O.3
  1298 H1297     30.2200     4.2595    39.7306   H
  1299 H1298     31.2357     3.4254    40.6222   H
  1300 O1299     18.8771    -7.2619    27.1004   O.3
  1301 H1300     19.0361    -6.6498    26.3689   H
  1302 H1301     18.1901    -6.7067    27.5595   H
  1303 O1302      3.5349    32.9778    32.1323   O.3
  1304 H1303      3.3087    32.0866    32.5150   H
  1305 H1304      2.8907    33.0819    31.4565   H
  1306 O1305     11.2378     7.8159     5.9210   O.3
  1307 H1306     11.9750     7.2171     5.8287   H
  1308 H1307     10.6848     7.2683     6.4855   H
  1309 O1308     -1.5820    14.5890    12.2081   O.3
  1310 H1309     -1.5190    15.4742    11.7621   H
  1311 H1310     -1.6727    15.0134    13.1092   H
  1312 O1311      1.5294    20.5615    31.2719   O.3
  1313 H1312      2.1477    21.2809    31.6727   H
  1314 H1313      0.6693    20.8848    31.4479   H
  1315 O1314     13.9265     0.5749    14.3443   O.3
  1316 H1315     13.2149    -0.0649    14.4109   H
  1317 H1316     14.1247     0.6743    15.3065   H
  1318 O1317     12.4080    -4.3546    15.6154   O.3
  1319 H1318     11.7873    -5.0225    16.0115   H
  1320 H1319     12.1980    -3.5462    16.0952   H
  1321 O1320     19.0295    36.3175    14.4502   O.3
  1322 H1321     19.1655    35.3995    14.7970   H
  1323 H1322     18.8842    36.8554    15.2365   H
  1324 O1323     10.5801    24.9725    10.7732   O.3
  1325 H1324     11.0852    25.7447    11.0591   H
  1326 H1325     10.1567    25.3904    10.0077   H
  1327 O1326    -16.1363   -10.3968   -10.1288   O.3
  1328 H1327    -15.9409   -10.1450   -11.0696   H
  1329 H1328    -16.6717   -11.1714   -10.3131   H
  1330 O1329     13.2847    51.4775    18.9538   O.3
  1331 H1330     12.8937    51.9692    18.2725   H
  1332 H1331     13.1789    52.0818    19.7429   H
  1333 O1332     34.7531     5.0238    52.4197   O.3
  1334 H1333     33.8505     4.6079    52.3309   H
  1335 H1334     34.7766     5.3389    51.5323   H
  1336 O1335     20.9042    34.1403    10.4943   O.3
  1337 H1336     20.2682    33.5120    10.8866   H
  1338 H1337     20.4899    34.8837    10.9693   H
  1339 O1338     54.2746   -20.8421    15.5625   O.3
  1340 H1339     53.7882   -21.3985    16.1475   H
  1341 H1340     53.4845   -20.3618    15.2304   H
  1342 O1341    -20.5878    22.9497    14.3879   O.3
  1343 H1342    -19.9208    22.5284    13.8560   H
  1344 H1343    -20.9820    22.1763    14.8279   H
  1345 O1344     16.3264    28.1718    12.9859   O.3
  1346 H1345     15.3906    28.4038    13.2002   H
  1347 H1346     16.6807    29.0742    13.1530   H
  1348 O1347     13.1803     1.0625     0.8515   O.3
  1349 H1348     12.8035     1.4912     0.0107   H
  1350 H1349     13.9236     0.5282     0.4295   H
  1351 O1350     22.9611    21.7467    32.8679   O.3
  1352 H1351     23.3690    21.2041    32.1563   H
  1353 H1352     22.5395    21.1141    33.4261   H
  1354 O1353     40.4318    12.7298    12.3098   O.3
  1355 H1354     41.3376    12.8498    11.9754   H
  1356 H1355     40.4835    13.2018    13.1861   H
  1357 O1356     51.9945    14.8860     8.7621   O.3
  1358 H1357     51.4134    14.4304     8.1320   H
  1359 H1358     51.9953    14.2844     9.4965   H
  1360 O1359     21.2214    40.1818   -14.6821   O.3
  1361 H1360     21.3115    40.6787   -15.5350   H
  1362 H1361     21.0780    40.8758   -14.0652   H
  1363 O1362     21.9961    37.4496   -20.5439   O.3
  1364 H1363     21.2307    37.9669   -20.8382   H
  1365 H1364     22.4174    37.2809   -21.4288   H
  1366 O1365     -6.3835    23.8818    -8.1991   O.3
  1367 H1366     -6.5513    24.8221    -8.1245   H
  1368 H1367     -7.3264    23.6136    -8.3938   H
  1369 O1368      2.9356     8.0819   -15.9335   O.3
  1370 H1369      3.5900     8.2972   -15.2258   H
  1371 H1370      3.6562     7.8744   -16.5723   H
  1372 O1371     19.7313     9.2107    -3.2528   O.3
  1373 H1372     20.6256     9.0313    -3.0483   H
  1374 H1373     19.8020    10.1768    -3.1738   H
  1375 O1374     12.8158    19.2642    27.9678   O.3
  1376 H1375     12.8445    18.3567    27.6143   H
  1377 H1376     13.7091    19.4741    27.6679   H
  1378 O1377     26.0568    13.5497     2.7514   O.3
  1379 H1378     25.9028    12.9859     3.5248   H
  1380 H1379     27.0619    13.5587     2.6332   H
  1381 O1380    -13.3174    15.3700    19.6973   O.3
  1382 H1381    -13.0476    14.4955    19.9619   H
  1383 H1382    -14.2496    15.4161    19.9787   H
  1384 O1383     34.2917     9.3546    17.2947   O.3
  1385 H1384     33.3830     9.6137    17.0490   H
  1386 H1385     34.7188     9.9288    16.5958   H
  1387 O1386     32.4232     0.4839    15.1457   O.3
  1388 H1387     31.7556     0.1323    14.5148   H
  1389 H1388     32.9815     1.1593    14.7449   H
  1390 O1389     26.0582    28.0835    11.4399   O.3
  1391 H1390     25.8156    27.3190    11.9888   H
  1392 H1391     25.6125    27.8527    10.5787   H
  1393 O1392     32.5050     7.5906    -8.5348   O.3
  1394 H1393     31.8852     7.8764    -9.1953   H
  1395 H1394     32.9708     8.4285    -8.3429   H
  1396 O1395      7.6598    17.1408     6.9800   O.3
  1397 H1396      8.2287    17.3673     6.2358   H
  1398 H1397      6.8622    17.0741     6.4086   H
  1399 O1398     26.9108    19.5018    25.2161   O.3
  1400 H1399     27.6061    18.9133    24.9698   H
  1401 H1400     26.5907    19.7637    24.3537   H
  1402 O1401     31.5840    21.9955   -11.5036   O.3
  1403 H1402     31.1863    22.2384   -12.3966   H
  1404 H1403     31.5023    22.7678   -11.0192   H
  1405 O1404     30.2217     9.2711     1.1111   O.3
  1406 H1405     29.4218     9.1939     0.5691   H
  1407 H1406     29.9194     8.5927     1.7601   H
  1408 O1407      6.5170    17.7918    41.6643   O.3
  1409 H1408      6.1185    17.0113    42.0538   H
  1410 H1409      5.6764    18.1813    41.4384   H
  1411 O1410     19.2294    -6.8058    44.7537   O.3
  1412 H1411     19.3832    -7.1646    43.8400   H
  1413 H1412     19.0585    -5.8446    44.6153   H
  1414 O1413     14.8541    42.0915    -0.8977   O.3
  1415 H1414     15.1743    41.9179    -1.7521   H
  1416 H1415     14.4676    41.2298    -0.5663   H
  1417 O1416     35.0494    12.7696    31.4849   O.3
  1418 H1417     34.8026    11.9593    31.9689   H
  1419 H1418     35.1753    13.3230    32.2680   H
  1420 O1419     29.6982     3.5681    -9.1485   O.3
  1421 H1420     30.5826     4.0109    -9.0093   H
  1422 H1421     29.8995     3.0496    -9.9656   H
  1423 O1422      1.2134    20.6970    28.4831   O.3
  1424 H1423      1.4704    20.6071    29.4118   H
  1425 H1424      1.2299    19.6759    28.3379   H
  1426 O1425     47.5156     1.6914    19.7966   O.3
  1427 H1426     48.4062     1.3926    20.1684   H
  1428 H1427     47.6713     2.5910    19.5835   H
  1429 O1428     18.1319    25.1099     4.7631   O.3
  1430 H1429     17.9858    24.8159     5.6795   H
  1431 H1430     18.5140    26.0203     4.9350   H
  1432 O1431     -2.2377    16.0359    14.7152   O.3
  1433 H1432     -2.3923    16.8469    15.2461   H
  1434 H1433     -3.1686    15.6333    14.7896   H
  1435 O1434     17.8859    -7.3848    38.3654   O.3
  1436 H1435     17.2375    -6.9284    38.9557   H
  1437 H1436     18.6807    -6.9518    38.7231   H
  1438 O1437     24.4373    -3.8309    32.5795   O.3
  1439 H1438     23.5668    -3.9993    32.9736   H
  1440 H1439     24.3535    -4.1200    31.6531   H
  1441 O1440     17.5963    -4.0897    12.2304   O.3
  1442 H1441     18.3562    -4.6417    11.9150   H
  1443 H1442     16.8781    -4.6465    12.0048   H
  1444 O1443     30.1608     8.7921    18.1232   O.3
  1445 H1444     30.0905     9.2611    18.9880   H
  1446 H1445     29.1876     8.7203    17.8484   H
  1447 O1446      3.6871    -2.3706    39.6574   O.3
  1448 H1447      4.5769    -2.5176    40.0142   H
  1449 H1448      3.9418    -2.4303    38.6910   H
  1450 O1449     14.4816    11.9610    16.0333   O.3
  1451 H1450     15.3505    11.8910    16.4762   H
  1452 H1451     14.3033    12.9298    15.9425   H
  1453 O1452    -19.2178    15.0121   -12.5195   O.3
  1454 H1453    -18.5388    15.3298   -13.1364   H
  1455 H1454    -19.6985    14.4115   -13.1986   H
  1456 O1455     11.9449    -3.3757   -21.0534   O.3
  1457 H1456     12.3250    -3.3211   -21.9600   H
  1458 H1457     12.7110    -3.4661   -20.4457   H
  1459 O1458     -5.9216    -2.4822    41.6656   O.3
  1460 H1459     -6.1448    -3.2406    42.2463   H
  1461 H1460     -6.7345    -2.0217    41.7067   H
  1462 O1461     -4.4853    -5.8109     8.0261   O.3
  1463 H1462     -5.0997    -6.4671     8.4216   H
  1464 H1463     -5.0119    -5.0079     8.1901   H
  1465 O1464     -6.3183    42.1971     6.0902   O.3
  1466 H1465     -6.3829    42.9100     6.7541   H
  1467 H1466     -6.6963    42.6819     5.3938   H
  1468 O1467     10.0484    -2.6581    20.5368   O.3
  1469 H1468      9.8038    -1.7996    20.9747   H
  1470 H1469      9.7375    -3.3123    21.2261   H
  1471 O1470      8.4098    31.1464    22.5940   O.3
  1472 H1471      8.5850    31.8428    23.1912   H
  1473 H1472      8.4291    30.3000    23.1394   H
  1474 O1473     17.4947    19.4976    -3.3404   O.3
  1475 H1474     16.9930    19.6052    -4.1626   H
  1476 H1475     17.7654    20.4083    -3.2633   H
  1477 O1476     33.3754    -2.6022    27.2413   O.3
  1478 H1477     32.7695    -2.0211    27.7782   H
  1479 H1478     33.8384    -3.0338    27.9119   H
  1480 O1479     30.6237    51.3498    -6.5213   O.3
  1481 H1480     30.0463    52.1049    -6.2106   H
  1482 H1481     30.5672    50.6432    -5.7786   H
  1483 O1482     24.7895     1.9511    34.1525   O.3
  1484 H1483     24.8703     1.1606    33.5524   H
  1485 H1484     25.4490     1.7617    34.8049   H
  1486 O1485     20.0610     9.1168    31.0231   O.3
  1487 H1486     20.7275     8.4502    31.2617   H
  1488 H1487     20.5302     9.5557    30.2386   H
  1489 O1488      7.1523     7.0814    -9.5838   O.3
  1490 H1489      6.5135     7.4400    -8.9561   H
  1491 H1490      7.2694     8.0048   -10.0057   H
  1492 O1491      9.7149     2.4305    16.0270   O.3
  1493 H1492     10.3049     2.8494    15.3328   H
  1494 H1493      9.4000     3.2124    16.5138   H
  1495 O1494     17.5919    31.0650   -29.5122   O.3
  1496 H1495     18.5084    30.7339   -29.3851   H
  1497 H1496     17.5352    31.2850   -28.5285   H
  1498 O1497     47.7469    15.2843    10.8090   O.3
  1499 H1498     46.8837    14.8462    10.9471   H
  1500 H1499     47.7833    15.9902    11.4441   H
  1501 O1500     33.0653    24.1976     5.2104   O.3
  1502 H1501     33.8261    23.8772     5.7629   H
  1503 H1502     32.4370    24.3066     5.9778   H
  1504 O1503     11.2869   -14.7708    26.1005   O.3
  1505 H1504     10.7924   -13.9504    26.2127   H
  1506 H1505     11.7530   -14.8478    26.9665   H
  1507 O1506     14.8419   -13.0241    16.7299   O.3
  1508 H1507     14.5375   -12.8927    17.6738   H
  1509 H1508     15.7988   -12.9136    16.7868   H
  1510 O1509     24.0591    25.2507    -0.6722   O.3
  1511 H1510     24.8304    25.1619    -0.1229   H
  1512 H1511     23.8151    26.0945    -0.3012   H
  1513 O1512     40.3227    14.4009    20.8661   O.3
  1514 H1513     41.0649    13.8236    20.9787   H
  1515 H1514     39.5697    13.8151    21.1073   H
  1516 O1515      7.1615    14.2535    33.6646   O.3
  1517 H1516      6.9872    14.9728    34.2699   H
  1518 H1517      7.9863    13.9050    34.0573   H
  1519 O1518      9.2946    -7.8116    33.9384   O.3
  1520 H1519      8.6292    -7.7071    34.6367   H
  1521 H1520      9.0183    -7.0778    33.4208   H
  1522 O1521     41.1714     0.8101     9.6457   O.3
  1523 H1522     42.1540     0.8486     9.7116   H
  1524 H1523     41.0870     0.5396     8.6969   H
  1525 O1524     10.9273     8.3482    26.2419   O.3
  1526 H1525     10.2994     9.0041    26.6594   H
  1527 H1526     10.4311     8.2228    25.4005   H
  1528 O1527      7.3919    34.3481     8.3471   O.3
  1529 H1528      7.4825    34.1439     9.2807   H
  1530 H1529      8.3267    34.1426     8.0695   H
  1531 O1530     16.3139    -2.6243    20.0289   O.3
  1532 H1531     15.3705    -2.3718    20.0812   H
  1533 H1532     16.6720    -2.3277    20.9133   H
  1534 O1533     19.2536    34.6427    26.0066   O.3
  1535 H1534     19.7290    35.2787    25.5250   H
  1536 H1535     19.7730    34.6437    26.8709   H
  1537 O1536     26.2721    12.0430    39.2869   O.3
  1538 H1537     25.5067    12.1124    38.6879   H
  1539 H1538     26.1772    13.0108    39.6030   H
  1540 O1539     20.2600    32.2915    19.3207   O.3
  1541 H1540     20.9817    32.3831    19.9703   H
  1542 H1541     20.8623    32.2270    18.5687   H
  1543 O1542     -8.4599    10.6713    11.1555   O.3
  1544 H1543     -7.5185    10.6370    11.1853   H
  1545 H1544     -8.6466    11.1878    11.9464   H
  1546 O1545     25.1612    21.9283    21.4153   O.3
  1547 H1546     24.1755    22.0320    21.2771   H
  1548 H1547     25.3233    21.7849    20.4356   H
  1549 O1548     24.2920    18.7469    13.4966   O.3
  1550 H1549     24.5081    18.8535    14.4331   H
  1551 H1550     24.7000    19.6076    13.1694   H
  1552 O1551      0.3192     5.4553    11.8055   O.3
  1553 H1552     -0.6652     5.6393    11.9899   H
  1554 H1553      0.3144     4.5055    11.8635   H
  1555 O1554     -5.3869    22.3942    -4.0832   O.3
  1556 H1555     -5.0355    22.0141    -4.9061   H
  1557 H1556     -5.8412    23.1736    -4.3424   H
  1558 O1557     10.4810    15.1648     4.0080   O.3
  1559 H1558     10.5142    15.1774     5.0025   H
  1560 H1559     11.4051    15.0695     3.7410   H
  1561 O1560     13.4218     7.4865    29.1124   O.3
  1562 H1561     13.9150     7.6488    29.9834   H
  1563 H1562     13.4436     8.3501    28.6789   H
  1564 O1563     30.3556    33.0024    23.5526   O.3
  1565 H1564     30.7378    32.1650    23.8737   H
  1566 H1565     31.1561    33.3443    23.1085   H
  1567 O1566     25.3555    13.0994     0.1096   O.3
  1568 H1567     25.1742    12.3262     0.6464   H
  1569 H1568     25.9897    13.3893     0.7932   H
  1570 O1569      1.8027    22.0082    13.5523   O.3
  1571 H1570      2.1416    22.8837    13.8506   H
  1572 H1571      2.4154    21.9177    12.7727   H
  1573 O1572      6.1390    13.6868    20.2165   O.3
  1574 H1573      6.0721    13.8208    19.2361   H
  1575 H1574      5.2099    13.6274    20.6138   H
  1576 O1575     22.8435    20.6070    28.2353   O.3
  1577 H1576     22.9669    21.3251    27.5670   H
  1578 H1577     23.5972    20.0402    27.9754   H
  1579 O1578      9.8974    -5.0671    28.2787   O.3
  1580 H1579     10.0548    -5.9396    28.6637   H
  1581 H1580     10.7772    -4.7061    28.4706   H
  1582 O1581    -15.2850     5.7869    12.7775   O.3
  1583 H1582    -16.0034     6.4191    12.6898   H
  1584 H1583    -15.3000     5.4275    11.8627   H
  1585 O1584     15.3599    19.3245    22.7959   O.3
  1586 H1585     15.4356    19.9712    22.0572   H
  1587 H1586     14.5290    19.6431    23.2147   H
  1588 O1587     11.1002   -15.5470    16.0234   O.3
  1589 H1588     11.0719   -16.3413    15.4797   H
  1590 H1589     10.1475   -15.3564    16.0321   H
  1591 O1590     27.3951   -10.4309     4.1186   O.3
  1592 H1591     26.5414   -10.5676     4.5836   H
  1593 H1592     27.4526    -9.5047     4.2599   H
  1594 O1593      6.6859    41.4513    14.5986   O.3
  1595 H1594      6.1320    42.2789    14.5110   H
  1596 H1595      6.3512    40.9122    13.8361   H
  1597 O1596     24.7190    34.5924    24.4966   O.3
  1598 H1597     25.0657    33.9154    23.8726   H
  1599 H1598     24.8488    34.0810    25.2897   H
  1600 O1599     53.4341    26.6026    19.6704   O.3
  1601 H1600     53.1721    26.1521    20.5221   H
  1602 H1601     53.0077    25.9308    19.0600   H
  1603 O1602     13.8983   -16.2797    -0.3022   O.3
  1604 H1603     13.8814   -17.1520    -0.6741   H
  1605 H1604     13.1939   -16.4731     0.3540   H
  1606 O1605     -2.5524    19.4000     6.7806   O.3
  1607 H1606     -2.0112    19.0471     7.5505   H
  1608 H1607     -3.2144    19.9684     7.2211   H
  1609 O1608     -9.9520    15.6823    28.7483   O.3
  1610 H1609     -9.1680    15.7185    28.1429   H
  1611 H1610    -10.2447    16.5856    28.7206   H
  1612 O1611     10.2647    19.2329   -25.0116   O.3
  1613 H1612     11.1432    18.9893   -24.6577   H
  1614 H1613     10.3195    20.1557   -24.7221   H
  1615 O1614     13.1777     4.6870     3.9913   O.3
  1616 H1615     13.2935     5.2097     4.7907   H
  1617 H1616     14.1334     4.7643     3.9239   H
  1618 O1617     16.0053    24.1571    14.4314   O.3
  1619 H1618     16.5442    24.3653    13.6171   H
  1620 H1619     15.8677    25.0214    14.8399   H
  1621 O1620     42.1135    29.9771   -24.5736   O.3
  1622 H1621     41.5097    30.0594   -25.3408   H
  1623 H1622     42.0744    28.9834   -24.5413   H
  1624 O1623     -6.1912     6.8025     3.5834   O.3
  1625 H1624     -5.7031     6.5067     4.3918   H
  1626 H1625     -6.5772     5.9459     3.2702   H
  1627 O1626     39.1644    46.2503     6.5817   O.3
  1628 H1627     38.4960    46.8048     6.1809   H
  1629 H1628     39.6160    46.0454     5.7385   H
  1630 O1629     36.3104    20.6850    -1.5012   O.3
  1631 H1630     37.1015    20.3321    -1.0069   H
  1632 H1631     36.2596    20.0185    -2.2529   H
  1633 O1632     36.2480    -8.7747    11.9146   O.3
  1634 H1633     36.2311    -9.2435    11.0947   H
  1635 H1634     35.3960    -8.8948    12.2368   H
  1636 O1635     -0.5426    21.5598    38.6336   O.3
  1637 H1636     -0.0466    22.3335    38.8730   H
  1638 H1637     -0.8040    21.8183    37.7012   H
  1639 O1638     11.0135    32.5175    21.3137   O.3
  1640 H1639     11.3288    33.3645    21.0939   H
  1641 H1640     10.3743    32.8213    21.9902   H
  1642 O1641     20.4335    16.1539    -0.3320   O.3
  1643 H1642     21.2628    15.9227     0.1172   H
  1644 H1643     20.3643    17.1244    -0.1460   H
  1645 O1644    -11.3950     1.5602     2.4046   O.3
  1646 H1645    -12.2622     1.8372     2.7355   H
  1647 H1646    -11.5275     0.5989     2.6840   H
  1648 O1647     21.6647    35.8180    17.2193   O.3
  1649 H1648     20.9107    36.5102    17.0758   H
  1650 H1649     21.7994    36.0957    18.1474   H
  1651 O1650      9.8319     6.9745     3.2202   O.3
  1652 H1651     10.6441     6.7290     3.6719   H
  1653 H1652     10.0694     6.9351     2.2579   H
  1654 O1653     13.2132    -7.7615    38.3517   O.3
  1655 H1654     12.9055    -8.7178    38.5198   H
  1656 H1655     12.7482    -7.7275    37.4630   H
  1657 O1656     17.0279    11.7892    16.8330   O.3
  1658 H1657     17.2620    10.8430    16.9397   H
  1659 H1658     17.2199    12.0545    17.7446   H
  1660 O1659     15.8468    22.9004    -9.4935   O.3
  1661 H1660     14.9693    23.3311    -9.5828   H
  1662 H1661     16.1961    23.7129    -9.1284   H
  1663 O1662     10.8848     7.4987    12.0265   O.3
  1664 H1663     11.1981     8.4170    11.9185   H
  1665 H1664     10.6364     7.3147    11.1169   H
  1666 O1665     20.0397    26.7327   -21.0907   O.3
  1667 H1666     19.2866    26.1542   -20.8205   H
  1668 H1667     20.4784    26.7470   -20.2242   H
  1669 O1668     11.4797    12.8863     9.1094   O.3
  1670 H1669     12.1403    13.6382     9.1105   H
  1671 H1670     11.3246    12.8444    10.0542   H
  1672 O1671    -12.7306    15.2592     1.8380   O.3
  1673 H1672    -12.7019    14.8806     0.9220   H
  1674 H1673    -11.8173    15.7222     1.8154   H
  1675 O1674      5.2964     8.7944    29.9393   O.3
  1676 H1675      5.3055     8.3733    30.8345   H
  1677 H1676      4.3614     8.7901    29.7837   H
  1678 O1677     23.9003    15.1715    46.6602   O.3
  1679 H1678     24.6947    14.6990    46.3887   H
  1680 H1679     24.0585    15.2784    47.6513   H
  1681 O1680     34.4915     3.0680    32.0665   O.3
  1682 H1681     33.8938     3.4546    32.6703   H
  1683 H1682     35.3135     3.5858    32.2553   H
  1684 O1683     18.1089    17.3758    39.9944   O.3
  1685 H1684     17.5339    17.9432    40.4819   H
  1686 H1685     17.6438    17.3427    39.1407   H
  1687 O1686    -22.7811    40.0692    12.4090   O.3
  1688 H1687    -23.2891    39.7324    11.6956   H
  1689 H1688    -22.1674    40.6089    11.8575   H
  1690 O1689      3.2822    -9.5495    13.2787   O.3
  1691 H1690      3.8797    -8.9110    12.8592   H
  1692 H1691      2.7541    -9.8012    12.5422   H
  1693 O1692     -1.2767    18.0581     8.7720   O.3
  1694 H1693     -0.5504    18.4654     9.3291   H
  1695 H1694     -0.7919    17.2345     8.6265   H
  1696 O1695    -15.9671     9.9895    11.7302   O.3
  1697 H1696    -15.6697    10.8622    11.9623   H
  1698 H1697    -15.0451     9.6200    11.6264   H
  1699 O1698    -24.0813     4.8690    19.8470   O.3
  1700 H1699    -23.8714     4.9891    20.7527   H
  1701 H1700    -23.8527     5.7647    19.5699   H
  1702 O1701      7.6427     8.8164    35.0399   O.3
  1703 H1702      7.7936     8.0722    34.4078   H
  1704 H1703      7.5005     8.1811    35.7709   H
  1705 O1704     34.8461    23.1363    20.7460   O.3
  1706 H1705     34.1233    22.4536    20.5583   H
  1707 H1706     34.3758    23.6598    21.3814   H
  1708 O1707      1.8131    -1.0002     6.4690   O.3
  1709 H1708      2.7563    -0.6754     6.4824   H
  1710 H1709      1.8455    -1.5688     5.7011   H
  1711 O1710     16.3305    13.2551     4.5897   O.3
  1712 H1711     16.2836    14.1636     5.0193   H
  1713 H1712     17.1960    13.3615     4.0832   H
  1714 O1713      9.3887    -2.2178    41.3824   O.3
  1715 H1714      8.8182    -2.6631    42.0068   H
  1716 H1715      9.1174    -2.8779    40.7602   H
  1717 O1716     35.4168    43.5645    11.7741   O.3
  1718 H1717     35.7290    44.1072    11.0006   H
  1719 H1718     35.5645    44.1223    12.5548   H
  1720 O1719     31.6224    43.3575    17.7192   O.3
  1721 H1720     32.5635    43.4365    17.6320   H
  1722 H1721     31.2897    44.1687    17.2913   H
  1723 O1722     24.5128     8.5369    39.1864   O.3
  1724 H1723     25.1324     8.0296    39.7421   H
  1725 H1724     24.5739     8.0811    38.3658   H
  1726 O1725     25.5188    22.6162     6.3381   O.3
  1727 H1726     24.7437    22.7277     6.9557   H
  1728 H1727     25.1805    22.9403     5.5385   H
  1729 O1728     22.5798     4.9533    -2.0449   O.3
  1730 H1729     22.9145     4.8810    -1.1085   H
  1731 H1730     21.8601     5.5911    -1.9015   H
  1732 O1731     12.4369    21.9226     0.7075   O.3
  1733 H1732     12.8905    21.8296     1.5580   H
  1734 H1733     12.5917    21.0668     0.2440   H
  1735 O1734      9.9900    34.7359    19.0218   O.3
  1736 H1735      9.2360    34.3856    19.5732   H
  1737 H1736      9.5201    35.4682    18.5904   H
  1738 O1737      7.8913   -35.1019    36.0366   O.3
  1739 H1738      8.5514   -34.4390    36.3158   H
  1740 H1739      7.5908   -35.3975    36.8543   H
  1741 O1740     25.3831    27.9562    22.1466   O.3
  1742 H1741     25.4804    27.8292    21.1812   H
  1743 H1742     26.0720    28.6532    22.2954   H
  1744 O1743      1.3326    14.0813    26.3634   O.3
  1745 H1744      0.4864    14.0995    25.8587   H
  1746 H1745      1.4750    13.1193    26.3900   H
  1747 O1746     31.6127    47.0913     8.8077   O.3
  1748 H1747     31.2370    47.0722     7.8966   H
  1749 H1748     30.8861    46.8439     9.3675   H
  1750 O1749     14.2949    12.5588    21.5084   O.3
  1751 H1750     14.5300    12.5841    22.4473   H
  1752 H1751     14.2804    11.6088    21.3260   H
  1753 O1752      9.0919     9.6294    20.5239   O.3
  1754 H1753      8.7984     8.8924    21.1096   H
  1755 H1754      8.4588    10.3565    20.8076   H
  1756 O1755     12.4856    30.2005    -4.3686   O.3
  1757 H1756     12.8239    30.0709    -5.2622   H
  1758 H1757     12.7634    31.1132    -4.2051   H
  1759 O1758     16.8773    22.2483    28.1857   O.3
  1760 H1759     16.1707    22.9162    27.9919   H
  1761 H1760     17.2102    22.6530    29.0159   H
  1762 O1761      9.0271    26.4491   -19.1120   O.3
  1763 H1762      8.2566    25.8497   -18.8632   H
  1764 H1763      8.9456    27.1172   -18.4036   H
  1765 O1764     17.9671     5.1952   -12.9378   O.3
  1766 H1765     17.0905     5.5890   -12.9050   H
  1767 H1766     18.0028     5.0266   -11.9893   H
  1768 O1767    -13.9383    32.4632     9.6090   O.3
  1769 H1768    -13.9274    31.7000     9.0613   H
  1770 H1769    -13.4731    33.0776     8.9657   H
  1771 O1770     -2.8654     6.0894     8.6482   O.3
  1772 H1771     -3.7461     6.3091     8.3487   H
  1773 H1772     -2.6116     5.4516     7.8986   H
  1774 O1773     13.2786    15.9474     3.5521   O.3
  1775 H1774     13.2615    16.7253     2.9667   H
  1776 H1775     14.0769    15.5354     3.1133   H
  1777 O1776      9.9560    22.3508    13.5417   O.3
  1778 H1777      9.9609    22.1494    14.4867   H
  1779 H1778     10.7553    21.7941    13.3121   H
  1780 O1779      1.8677    45.8889    19.0999   O.3
  1781 H1780      2.4967    46.3532    18.5343   H
  1782 H1781      1.0968    45.9625    18.4963   H
  1783 O1782      6.6155    22.2037     2.4664   O.3
  1784 H1783      5.8469    22.6558     2.0562   H
  1785 H1784      6.6536    21.3231     2.1130   H
  1786 O1785     32.5212    12.9965     1.9502   O.3
  1787 H1786     32.4887    13.7938     2.5537   H
  1788 H1787     33.3935    12.6893     2.1827   H
  1789 O1788     20.4071    12.4009    24.3431   O.3
  1790 H1789     20.5547    12.4917    25.3541   H
  1791 H1790     20.2726    13.3188    24.2156   H
  1792 O1791      2.1155     2.1740     9.6013   O.3
  1793 H1792      1.1677     2.2351     9.8284   H
  1794 H1793      2.4141     2.4546    10.4916   H
  1795 O1794     27.0808    13.9069    -3.0798   O.3
  1796 H1795     26.4514    14.5758    -2.7689   H
  1797 H1796     26.7769    13.0764    -2.6553   H
  1798 O1797     -5.8545    29.0641    11.5617   O.3
  1799 H1798     -5.6454    30.0370    11.5835   H
  1800 H1799     -5.2956    28.7780    12.3204   H
  1801 O1800     17.4290     5.1070    21.8249   O.3
  1802 H1801     17.2270     4.7160    20.9423   H
  1803 H1802     18.3394     4.9017    21.8245   H
  1804 O1803     21.0579    40.5396    -1.0311   O.3
  1805 H1804     22.0061    40.7704    -1.2462   H
  1806 H1805     20.9260    40.8147    -0.1201   H
  1807 O1806     11.8911    20.5909    35.9522   O.3
  1808 H1807     11.0725    21.1531    35.8124   H
  1809 H1808     11.6798    19.8154    35.4225   H
  1810 O1809      3.2818   -18.1998    22.6313   O.3
  1811 H1810      2.4912   -18.2149    23.1646   H
  1812 H1811      2.9112   -18.0898    21.6684   H
  1813 O1812     10.5022    21.9693    31.7316   O.3
  1814 H1813      9.5534    21.9566    32.1152   H
  1815 H1814     10.4228    22.8686    31.2677   H
  1816 O1815      4.0081   -13.3533    24.0661   O.3
  1817 H1816      4.7963   -13.2823    24.6164   H
  1818 H1817      3.3117   -13.1280    24.7420   H
  1819 O1818     -9.8526    26.0928    45.8883   O.3
  1820 H1819    -10.5008    25.7952    46.5690   H
  1821 H1820     -9.0772    26.2896    46.5095   H
  1822 O1821      6.6125   -15.7005     8.2636   O.3
  1823 H1822      7.3739   -15.4085     7.7681   H
  1824 H1823      6.7959   -15.4782     9.2330   H
  1825 O1824     -7.4095     2.2757    23.1658   O.3
  1826 H1825     -7.8435     3.1460    23.4450   H
  1827 H1826     -6.5385     2.5908    22.9630   H
  1828 O1827      5.1211    42.9535     8.3338   O.3
  1829 H1828      4.8023    43.1902     9.2533   H
  1830 H1829      5.5751    42.1260     8.6055   H
  1831 O1830     29.2667     9.5926    24.2925   O.3
  1832 H1831     29.0781     8.6193    24.2135   H
  1833 H1832     28.5075     9.9693    23.7899   H
  1834 O1833     26.9408     1.1945    19.1566   O.3
  1835 H1834     27.0042     0.2196    19.1096   H
  1836 H1835     27.1678     1.4471    18.2519   H
  1837 O1836     17.8523    29.8873     5.0926   O.3
  1838 H1837     18.2488    29.0200     4.8277   H
  1839 H1838     17.2429    29.9463     4.3516   H
  1840 O1839     16.9443    15.9836    32.9408   O.3
  1841 H1840     16.6465    16.3524    32.1022   H
  1842 H1841     16.6140    16.6965    33.5478   H
  1843 O1842    -10.3757    14.0253    54.3919   O.3
  1844 H1843    -10.5244    15.0078    54.4482   H
  1845 H1844    -10.9092    13.8933    55.2130   H
  1846 O1845     28.0438    31.2303    48.8441   O.3
  1847 H1846     28.0537    30.2760    49.0641   H
  1848 H1847     28.7284    31.2053    48.1649   H
  1849 O1848      6.6861   -19.1907    -2.4704   O.3
  1850 H1849      6.8934   -18.2571    -2.7235   H
  1851 H1850      5.8740   -19.4324    -2.8965   H
  1852 O1851     12.4899    28.3583     7.0986   O.3
  1853 H1852     12.9152    29.2507     6.9717   H
  1854 H1853     12.7990    27.9157     6.3350   H
  1855 O1854     19.9003     9.7323   -11.0999   O.3
  1856 H1855     19.9460    10.1476   -10.1912   H
  1857 H1856     19.0390     9.2827   -10.9169   H
  1858 O1857     33.7451     1.8207    -5.9064   O.3
  1859 H1858     34.1421     1.3217    -6.6554   H
  1860 H1859     34.4364     2.4883    -5.8600   H
  1861 O1860     -2.4116    -5.9778   -12.1006   O.3
  1862 H1861     -2.2474    -5.0575   -12.4287   H
  1863 H1862     -2.0200    -6.4995   -12.8990   H
  1864 O1863     38.2491    19.6734    28.1701   O.3
  1865 H1864     37.9329    19.4128    29.0277   H
  1866 H1865     39.1816    19.3740    28.2973   H
  1867 O1866      2.0346    13.2275    -9.2175   O.3
  1868 H1867      1.1630    13.6504    -9.5178   H
  1869 H1868      2.5924    14.0279    -9.3725   H
  1870 O1869    -13.7675    18.1221    30.3354   O.3
  1871 H1870    -12.9611    17.6935    30.3138   H
  1872 H1871    -13.9369    18.5823    29.4911   H
  1873 O1872      1.7452    18.0231     0.3059   O.3
  1874 H1873      0.9273    17.6115     0.5951   H
  1875 H1874      2.3435    17.2532     0.4738   H
  1876 O1875     23.1485    -0.0255    28.0731   O.3
  1877 H1876     24.1153     0.2089    28.1604   H
  1878 H1877     22.9951     0.7854    27.5559   H
  1879 O1878     21.3047    13.5716    -9.5366   O.3
  1880 H1879     22.0464    14.2427    -9.6321   H
  1881 H1880     20.7893    13.9011    -8.7841   H
  1882 O1881     29.9013    39.4535    26.0256   O.3
  1883 H1882     30.6246    39.1312    26.4925   H
  1884 H1883     29.8239    38.7718    25.3677   H
  1885 O1884     17.0129     8.3747     7.3219   O.3
  1886 H1885     17.6187     8.8601     7.9194   H
  1887 H1886     16.7591     9.1027     6.7791   H
  1888 O1887     35.3001    -3.8133   -18.4564   O.3
  1889 H1888     35.5677    -4.4584   -17.7741   H
  1890 H1889     34.4783    -3.5218   -18.1216   H
  1891 O1890     15.8342     4.0094    11.4980   O.3
  1892 H1891     16.5031     3.6390    10.9489   H
  1893 H1892     15.1036     4.2373    10.8466   H
  1894 O1893     10.8546    -3.6731     2.6989   O.3
  1895 H1894     10.0241    -3.1719     2.7910   H
  1896 H1895     11.2134    -3.1977     1.9340   H
  1897 O1896     11.4608    11.4759    29.7075   O.3
  1898 H1897     10.8362    11.9118    30.3477   H
  1899 H1898     12.1110    11.1398    30.3707   H
  1900 O1899      3.9932     9.6576    -1.0820   O.3
  1901 H1900      4.7404     9.7266    -0.4042   H
  1902 H1901      3.2923     9.4256    -0.4522   H
  1903 O1902      3.6737    27.7025    -4.6219   O.3
  1904 H1903      3.0236    27.1994    -5.0999   H
  1905 H1904      4.1782    28.1355    -5.3470   H
  1906 O1905    -15.6567    21.2536    12.8783   O.3
  1907 H1906    -15.0537    21.9977    12.7379   H
  1908 H1907    -15.5642    20.8334    12.0352   H
  1909 O1908      6.1812    -1.2389    21.4879   O.3
  1910 H1909      6.4204    -2.0664    21.0827   H
  1911 H1910      5.6471    -1.5494    22.2136   H
  1912 O1911     14.1024    25.9670    24.9937   O.3
  1913 H1912     14.8762    26.4490    24.7251   H
  1914 H1913     13.3934    26.6320    24.8895   H
  1915 O1914    -14.6026     8.4051    18.5424   O.3
  1916 H1915    -14.0266     8.0471    17.8662   H
  1917 H1916    -15.2057     8.8722    17.8888   H
  1918 O1917      1.0670    31.3408   -13.2141   O.3
  1919 H1918      1.3519    30.7301   -12.5166   H
  1920 H1919      1.3824    30.8598   -14.0057   H
  1921 O1920     15.5794    32.8743    19.4920   O.3
  1922 H1921     15.1790    33.3180    20.2343   H
  1923 H1922     14.6454    32.6291    19.2101   H
  1924 O1923     13.6902   -18.3931     6.2271   O.3
  1925 H1924     13.1537   -18.0073     5.5746   H
  1926 H1925     14.5710   -17.9990     6.0571   H
  1927 O1926     40.7030    -2.9836    21.0958   O.3
  1928 H1927     40.9392    -2.0251    21.1540   H
  1929 H1928     39.7193    -2.8725    20.9572   H
  1930 O1929      7.8786     0.8356    24.0093   O.3
  1931 H1930      8.2445     0.7190    24.9417   H
  1932 H1931      6.9077     0.7230    24.1523   H
  1933 O1932     13.3127    15.2113     6.3808   O.3
  1934 H1933     13.4571    15.4367     5.4364   H
  1935 H1934     12.3860    15.4921     6.4107   H
  1936 O1935     32.2523    29.1225   -19.5580   O.3
  1937 H1936     32.6667    28.9516   -18.6703   H
  1938 H1937     31.3798    29.4693   -19.1930   H
  1939 O1938      9.7215    25.8344   -31.6213   O.3
  1940 H1939     10.1287    26.6719   -31.3287   H
  1941 H1940      9.4071    25.4884   -30.7461   H
  1942 O1941     21.2528    13.2398    29.6918   O.3
  1943 H1942     20.4062    13.2778    30.1956   H
  1944 H1943     21.9751    13.0024    30.3619   H
  1945 O1944      3.9531     8.3125    24.5210   O.3
  1946 H1945      3.6827     8.8473    25.2509   H
  1947 H1946      3.7081     8.9579    23.8340   H
  1948 O1947    -21.1245    14.7841    17.4598   O.3
  1949 H1948    -21.6313    14.2430    16.8064   H
  1950 H1949    -20.4656    15.1784    16.8891   H
  1951 O1950     33.9035     3.7095     9.3364   O.3
  1952 H1951     34.6825     3.9184     8.7314   H
  1953 H1952     33.4695     2.9459     8.8883   H
  1954 O1953     24.2321    22.9316    29.9333   O.3
  1955 H1954     24.3945    23.5391    29.1759   H
  1956 H1955     25.0308    22.3813    29.8086   H
  1957 O1956     -9.1752    36.0139    11.5750   O.3
  1958 H1957     -8.8037    36.9269    11.3931   H
  1959 H1958     -9.2098    36.1170    12.5546   H
  1960 O1959     19.0639    11.1363    21.9268   O.3
  1961 H1960     18.6772    11.6702    22.6639   H
  1962 H1961     19.9408    11.2609    22.2287   H
  1963 O1962     24.0697   -11.5879    26.7527   O.3
  1964 H1963     23.6642   -12.1013    27.4856   H
  1965 H1964     25.0084   -11.9058    26.8325   H
  1966 O1965     36.6479    -3.0281    26.9081   O.3
  1967 H1966     37.0884    -3.7694    27.3962   H
  1968 H1967     36.3405    -2.4317    27.6160   H
  1969 O1968      3.5142    19.8087    -9.9390   O.3
  1970 H1969      3.6034    20.6789   -10.3859   H
  1971 H1970      4.3253    19.4034   -10.1964   H
  1972 O1971     15.1189    19.8160     5.5188   O.3
  1973 H1972     15.1110    20.6028     6.1196   H
  1974 H1973     15.7312    20.2226     4.8382   H
  1975 O1974     37.8103    33.0515    24.0457   O.3
  1976 H1975     37.2205    33.8160    24.2839   H
  1977 H1976     38.5700    33.2651    24.5924   H
  1978 O1977     54.8263   -24.7787    26.9876   O.3
  1979 H1978     54.4976   -23.8982    27.1220   H
  1980 H1979     55.7126   -24.6641    26.7182   H
  1981 O1980      9.5200   -12.7194    -0.7939   O.3
  1982 H1981      9.2091   -11.8217    -1.0451   H
  1983 H1982      9.0551   -12.7368     0.0832   H
  1984 O1983     -1.2766    24.3962    -0.1351   O.3
  1985 H1984     -1.0740    25.1818    -0.6722   H
  1986 H1985     -1.0955    23.6089    -0.7306   H
  1987 O1986     -3.7232    38.4063    21.0324   O.3
  1988 H1987     -4.4307    38.9564    21.4534   H
  1989 H1988     -3.4503    37.9226    21.8470   H
  1990 O1989     32.6367    17.6649    -2.7353   O.3
  1991 H1990     31.9811    17.0024    -2.4511   H
  1992 H1991     32.3729    17.8461    -3.5916   H
  1993 O1992      0.0284    18.0686    17.2385   O.3
  1994 H1993     -0.9532    18.1774    17.0858   H
  1995 H1994      0.3768    18.5643    16.4590   H
  1996 O1995     17.9041    15.9458    17.9853   O.3
  1997 H1996     17.5603    16.7536    18.3571   H
  1998 H1997     17.9803    15.3682    18.7203   H
  1999 O1998     25.5672     9.2276     7.7297   O.3
  2000 H1999     26.2272     8.8832     8.3666   H
  2001 H2000     25.7772    10.1717     7.9094   H
  2002 O2001     29.4424    25.4924    22.7405   O.3
  2003 H2002     28.5041    25.3792    22.6659   H
  2004 H2003     29.4298    25.3386    23.7099   H
  2005 O2004     25.4947     5.6243    -0.6760   O.3
  2006 H2005     25.4197     6.5199    -0.3345   H
  2007 H2006     24.8725     5.1750    -0.0134   H
  2008 O2007     43.8578    19.0830    12.7748   O.3
  2009 H2008     43.0995    18.8167    12.2118   H
  2010 H2009     43.5690    18.9234    13.7264   H
  2011 O2010     14.6184   -18.9338    10.7890   O.3
  2012 H2011     14.1584   -19.2295     9.9890   H
  2013 H2012     15.1834   -18.2159    10.4551   H
  2014 O2013     33.1948    -8.2162    11.8843   O.3
  2015 H2014     32.8067    -7.3471    11.6065   H
  2016 H2015     33.5534    -8.4956    11.0014   H
  2017 O2016     24.1484     1.0255    16.3746   O.3
  2018 H2017     23.9295     1.4788    17.1497   H
  2019 H2018     25.1470     0.9712    16.2676   H
  2020 O2019     28.5508     0.5791    12.1676   O.3
  2021 H2020     28.6000     1.4743    11.8097   H
  2022 H2021     27.6015     0.3859    11.9644   H
  2023 O2022    -29.2012    -7.7083    32.5779   O.3
  2024 H2023    -30.0518    -8.0999    32.8927   H
  2025 H2024    -28.8165    -7.3734    33.3739   H
  2026 O2025     14.9828    27.5914    -6.5015   O.3
  2027 H2026     13.9924    27.7004    -6.4049   H
  2028 H2027     15.3329    28.4174    -6.0756   H
  2029 O2028     10.1204    22.7068     8.1085   O.3
  2030 H2029      9.9964    23.0480     9.0290   H
  2031 H2030     10.8282    23.2789     7.7737   H
  2032 O2031     -1.9177     6.3475    21.9662   O.3
  2033 H2032     -1.8470     7.0003    21.2638   H
  2034 H2033     -1.4481     6.7596    22.7035   H
  2035 O2034     25.4772     7.5831    47.6074   O.3
  2036 H2035     24.5037     7.7937    47.5831   H
  2037 H2036     25.5137     6.8327    46.9073   H
  2038 O2037     26.7521    16.0505    26.8869   O.3
  2039 H2038     26.9291    16.2633    27.7971   H
  2040 H2039     27.2722    16.7135    26.4412   H
  2041 O2040     38.9762    29.8294    -7.2474   O.3
  2042 H2041     38.8236    30.8258    -7.1133   H
  2043 H2042     38.2581    29.4421    -6.7012   H
  2044 O2043     28.1368    21.0531    22.9736   O.3
  2045 H2044     29.0848    20.8708    22.8456   H
  2046 H2045     27.8041    20.7780    22.1061   H
  2047 O2046      8.1575    -8.7393    24.1720   O.3
  2048 H2047      8.0470    -8.2380    23.3248   H
  2049 H2048      9.1330    -8.7551    24.2431   H
  2050 O2049     35.8603    35.6671    22.0429   O.3
  2051 H2050     34.8899    35.6920    22.0125   H
  2052 H2051     36.0450    34.7870    21.7319   H
  2053 O2052     -1.0151    -3.4563   -14.7498   O.3
  2054 H2053     -0.3932    -3.7756   -15.4424   H
  2055 H2054     -1.8314    -3.1982   -15.2915   H
  2056 O2055     41.0838    24.2957    32.5035   O.3
  2057 H2056     41.5871    23.6068    32.0898   H
  2058 H2057     40.2791    24.3119    31.9282   H
  2059 O2058     39.9490    27.6302    25.2376   O.3
  2060 H2059     40.1384    28.5070    24.8849   H
  2061 H2060     39.3416    27.9673    25.9120   H
  2062 O2061     16.2173     2.6235     7.0748   O.3
  2063 H2062     16.8150     3.2647     7.4902   H
  2064 H2063     16.7758     2.4791     6.2938   H
  2065 O2064     26.0816     4.8349     6.5787   O.3
  2066 H2065     25.6716     4.0165     6.2078   H
  2067 H2066     26.9730     4.6256     6.2851   H
  2068 O2067     18.9210   -10.3562    21.1223   O.3
  2069 H2068     18.1813    -9.7809    20.7774   H
  2070 H2069     18.4555   -10.7478    21.8609   H
  2071 O2070     24.6426    25.9344    11.9960   O.3
  2072 H2071     24.0972    25.8789    12.8223   H
  2073 H2072     23.9975    25.6474    11.3272   H
  2074 O2073     28.7961    13.9000    21.7190   O.3
  2075 H2074     28.4215    13.6235    22.5534   H
  2076 H2075     28.0810    14.3206    21.2734   H
  2077 O2076     25.9898    18.7525     1.6326   O.3
  2078 H2077     26.4568    17.9710     1.7414   H
  2079 H2078     25.6596    18.8155     0.7350   H
  2080 O2079     12.7560   -16.7609     4.1539   O.3
  2081 H2080     12.5622   -16.1332     4.8567   H
  2082 H2081     11.8149   -17.2005     4.1219   H
  2083 O2082      9.8285    29.4233     7.1800   O.3
  2084 H2083      9.1558    28.9113     6.6490   H
  2085 H2084     10.5631    28.7924     7.2267   H
  2086 O2085     16.8808     7.3355    19.5621   O.3
  2087 H2086     16.2579     6.6283    19.6639   H
  2088 H2087     16.6247     7.9701    20.2495   H
  2089 O2088     28.8402    23.7068   -21.9825   O.3
  2090 H2089     28.7900    22.7481   -22.1335   H
  2091 H2090     29.1849    24.0424   -22.8393   H
  2092 O2091     19.9542   -12.7271    -7.8262   O.3
  2093 H2092     19.6054   -11.8702    -7.6854   H
  2094 H2093     19.3442   -13.2283    -7.2585   H
  2095 O2094     10.9877    10.1908   -13.7124   O.3
  2096 H2095     10.0003    10.1789   -13.8947   H
  2097 H2096     11.2827    10.2555   -14.6246   H
  2098 O2097      9.9993   -21.9112     7.5469   O.3
  2099 H2098     10.4344   -22.7428     7.2950   H
  2100 H2099     10.6310   -21.6524     8.2856   H
  2101 O2100     32.6624    32.4980    16.0541   O.3
  2102 H2101     33.5834    32.6322    15.8073   H
  2103 H2102     32.3129    33.3549    16.2722   H
  2104 O2103     29.5644    38.5813    20.0650   O.3
  2105 H2104     28.5916    38.4933    20.1778   H
  2106 H2105     29.6848    39.4981    19.7788   H
  2107 O2106     10.6430    15.1403    34.8734   O.3
  2108 H2107      9.8322    14.7200    35.2142   H
  2109 H2108     10.6731    15.7111    35.6410   H
  2110 O2109     12.4356   -11.4395    -3.6259   O.3
  2111 H2110     11.7858   -11.3701    -4.3348   H
  2112 H2111     12.6830   -10.5060    -3.6460   H
  2113 O2112     14.1338    40.3852    24.7583   O.3
  2114 H2113     13.6669    40.2013    25.6394   H
  2115 H2114     14.8236    39.6850    24.8768   H
  2116 O2115     16.7353   -18.6357    21.4668   O.3
  2117 H2116     17.1232   -19.2556    22.1451   H
  2118 H2117     17.3852   -17.9604    21.3976   H
  2119 O2118     10.8799    -9.0669    20.2530   O.3
  2120 H2119     11.2778    -9.5782    19.4926   H
  2121 H2120     11.1754    -8.1374    20.0347   H
  2122 O2121     27.3961    22.3169     8.0194   O.3
  2123 H2122     28.0429    22.9191     7.6200   H
  2124 H2123     26.6044    22.3625     7.3803   H
  2125 O2124     -5.4891   -23.8484    -4.7413   O.3
  2126 H2125     -4.5978   -23.8079    -4.3388   H
  2127 H2126     -5.9352   -23.6706    -3.9023   H
  2128 O2127     28.3769     5.9821    -9.1028   O.3
  2129 H2128     28.6667     6.0313   -10.0046   H
  2130 H2129     28.6676     5.1449    -8.7142   H
  2131 O2130     -1.4487    39.8600     8.0413   O.3
  2132 H2131     -1.6550    40.7363     8.4629   H
  2133 H2132     -0.4532    39.7873     8.1236   H
  2134 O2133      8.2584    37.4546    38.0781   O.3
  2135 H2134      7.6417    37.7493    37.4693   H
  2136 H2135      9.0123    37.5120    37.5101   H
  2137 O2136     32.4658    14.7732     4.1102   O.3
  2138 H2137     33.3069    14.9514     4.5634   H
  2139 H2138     32.1376    13.9805     4.6316   H
  2140 O2139     -5.2841    15.4341     0.8803   O.3
  2141 H2140     -5.7669    14.6631     1.1584   H
  2142 H2141     -4.6424    15.5705     1.5993   H
  2143 O2142     38.9759    16.9028     8.8984   O.3
  2144 H2143     38.9837    17.7128     8.3544   H
  2145 H2144     39.7629    17.1538     9.4199   H
  2146 O2145     15.6568     8.8936    30.8819   O.3
  2147 H2146     15.2790     9.7757    30.7716   H
  2148 H2147     16.2028     9.1364    31.7060   H
  2149 O2148     11.4242    53.3809    17.7776   O.3
  2150 H2149     10.6629    53.5458    18.3544   H
  2151 H2150     11.9258    54.1607    17.9269   H
  2152 O2151    -10.3203    -1.4593    22.4673   O.3
  2153 H2152    -10.0075    -0.5723    22.4549   H
  2154 H2153    -10.8342    -1.3834    23.2976   H
  2155 O2154     44.9750   -11.1042    37.3211   O.3
  2156 H2155     44.9646   -11.2141    36.3363   H
  2157 H2156     45.1622   -12.0582    37.4575   H
  2158 O2157     17.6134    22.3965     8.1476   O.3
  2159 H2158     17.7104    21.7765     8.9113   H
  2160 H2159     16.7640    22.0463     7.8568   H
  2161 O2160     43.5081     8.5149    15.6916   O.3
  2162 H2161     43.2674     7.7956    15.0999   H
  2163 H2162     42.7567     9.1265    15.7102   H
  2164 O2163     45.9296     4.4561     8.3962   O.3
  2165 H2164     45.8912     5.3404     8.7387   H
  2166 H2165     46.3317     4.6036     7.4831   H
  2167 O2166     24.4764     8.5419    42.1285   O.3
  2168 H2167     25.1289     9.0782    41.6099   H
  2169 H2168     23.8223     9.1154    42.5802   H
  2170 O2169     12.2126     6.9462    20.3692   O.3
  2171 H2170     11.3232     7.1811    20.0688   H
  2172 H2171     12.7824     7.3014    19.7140   H
  2173 O2172     23.4047    34.0113     5.5856   O.3
  2174 H2173     23.0644    34.2613     6.4566   H
  2175 H2174     23.1575    33.0588     5.6826   H
  2176 O2175     27.7450     9.2030    16.8311   O.3
  2177 H2176     27.2675     8.6175    16.1625   H
  2178 H2177     26.9398     9.6303    17.1378   H
  2179 O2178     -2.0665    11.6386     5.2835   O.3
  2180 H2179     -2.2588    11.6110     6.2236   H
  2181 H2180     -1.1514    11.8834     5.1938   H
  2182 O2181     26.5257     4.8750    58.9069   O.3
  2183 H2182     26.1329     4.0157    58.6828   H
  2184 H2183     27.3481     4.7228    58.3256   H
  2185 O2184      5.7525    -1.8919     3.6235   O.3
  2186 H2185      5.7789    -1.1647     4.2173   H
  2187 H2186      5.5973    -2.6587     4.1872   H
  2188 O2187    -12.3706    10.6972    41.6687   O.3
  2189 H2188    -12.6027     9.8361    41.4863   H
  2190 H2189    -12.7322    10.8570    42.5384   H
  2191 O2190     18.7743    26.5408    12.4266   O.3
  2192 H2191     18.4881    25.5851    12.4318   H
  2193 H2192     17.9613    26.8932    12.8664   H
  2194 O2193     22.2811    24.3906    39.0995   O.3
  2195 H2194     22.1188    24.7117    40.0214   H
  2196 H2195     22.5327    23.4530    39.3467   H
  2197 O2196     24.6531    25.9367    -3.2780   O.3
  2198 H2197     25.4281    26.1693    -2.8107   H
  2199 H2198     24.2291    25.4040    -2.6279   H

@<TRIPOS>BOND
     1      2      1 1
     2      3      1 1
     3      5      4 1
     4      6      4 1
     5      8      7 1
     6      9      7 1
     7     11     10 1
     8     12     10 1
     9     14     13 1
    10     15     13 1
    11     17     16 1
    12     18     16 1
    13     20     19 1
    14     21     19 1
    15     23     22 1
    16     24     22 1
    17     26     25 1
    18     27     25 1
    19     29     28 1
    20     30     28 1
    21     32     31 1
    22     33     31 1
    23     35     34 1
    24     36     34 1
    25     38     37 1
    26     39     37 1
    27     41     40 1
    28     42     40 1
    29     44     43 1
    30     45     43 1
    31     47     46 1
    32     48     46 1
    33     50     49 1
    34     51     49 1
    35     53     52 1
    36     54     52 1
    37     56     55 1
    38     57     55 1
    39     59     58 1
    40     60     58 1
    41     62     61 1
    42     63     61 1
    43     65     64 1
    44     66     64 1
    45     68     67 1
    46     69     67 1
    47     71     70 1
    48     72     70 1
    49     74     73 1
    50     75     73 1
    51     77     76 1
    52     78     76 1
    53     80     79 1
    54     81     79 1
    55     83     82 1
    56     84     82 1
    57     86     85 1
    58     87     85 1
    59     89     88 1
    60     90     88 1
    61     92     91 1
    62     93     91 1
    63     95     94 1
    64     96     94 1
    65     98     97 1
    66     99     97 1
    67    101    100 1
    68    102    100 1
    69    104    103 1
    70    105    103 1
    71    107    106 1
    72    108    106 1
    73    110    109 1
    74    111    109 1
    75    113    112 1
    76    114    112 1
    77    116    115 1
    78    117    115 1
    79    119    118 1
    80    120    118 1
    81    122    121 1
    82    123    121 1
    83    125    124 1
    84    126    124 1
    85    128    127 1
    86    129    127 1
    87    131    130 1
    88    132    130 1
    89    134    133 1
    90    135    133 1
    91    137    136 1
    92    138    136 1
    93    140    139 1
    94    141    139 1
    95    143    142 1
    96    144    142 1
    97    146    145 1
    98    147    145 1
    99    149    148 1
   100    150    148 1
   101    152    151 1
   102    153    151 1
   103    155    154 1
   104    156    154 1
   105    158    157 1
   106    159    157 1
   107    161    160 1
   108    162    160 1
   109    164    163 1
   110    165    163 1
   111    167    166 1
   112    168    166 1
   113    170    169 1
   114    171    169 1
   115    173    172 1
   116    174    172 1
   117    176    175 1
   118    177    175 1
   119    179    178 1
   120    180    178 1
   121    182    181 1
   122    183    181 1
   123    185    184 1
   124    186    184 1
   125    188    187 1
   126    189    187 1
   127    191    190 1
   128    192    190 1
   129    194    193 1
   130    195    193 1
   131    197    196 1
   132    198    196 1
   133    200    199 1
   134    201    199 1
   135    203    202 1
   136    204    202 1
   137    206    205 1
   138    207    205 1
   139    209    208 1
   140    210    208 1
   141    212    211 1
   142    213    211 1
   143    215    214 1
   144    216    214 1
   145    218    217 1
   146    219    217 1
   147    221    220 1
   148    222    220 1
   149    224    223 1
   150    225    223 1
   151    227    226 1
   152    228    226 1
   153    230    229 1
   154    231    229 1
   155    233    232 1
   156    234    232 1
   157    236    235 1
   158    237    235 1
   159    239    238 1
   160    240    238 1
   161    242    241 1
   162    243    241 1
   163    245    244 1
   164    246    244 1
   165    248    247 1
   166    249    247 1
   167    251    250 1
   168    252    250 1
   169    254    253 1
   170    255    253 1
   171    257    256 1
   172    258    256 1
   173    260    259 1
   174    261    259 1
   175    263    262 1
   176    264    262 1
   177    266    265 1
   178    267    265 1
   179    269    268 1
   180    270    268 1
   181    272    271 1
   182    273    271 1
   183    275    274 1
   184    276    274 1
   185    278    277 1
   186    279    277 1
   187    281    280 1
   188    282    280 1
   189    284    283 1
   190    285    283 1
   191    287    286 1
   192    288    286 1
   193    290    289 1
   194    291    289 1
   195    293    292 1
   196    294    292 1
   197    296    295 1
   198    297    295 1
   199    299    298 1
   200    300    298 1
   201    302    301 1
   202    303    301 1
   203    305    304 1
   204    306    304 1
   205    308    307 1
   206    309    307 1
   207    311    310 1
   208    312    310 1
   209    314    313 1
   210    315    313 1
   211    317    316 1
   212    318    316 1
   213    320    319 1
   214    321    319 1
   215    323    322 1
   216    324    322 1
   217    326    325 1
   218    327    325 1
   219    329    328 1
   220    330    328 1
   221    332    331 1
   222    333    331 1
   223    335    334 1
   224    336    334 1
   225    338    337 1
   226    339    337 1
   227    341    340 1
   228    342    340 1
   229    344    343 1
   230    345    343 1
   231    347    346 1
   232    348    346 1
   233    350    349 1
   234    351    349 1
   235    353    352 1
   236    354    352 1
   237    356    355 1
   238    357    355 1
   239    359    358 1
   240    360    358 1
   241    362    361 1
   242    363    361 1
   243    365    364 1
   244    366    364 1
   245    368    367 1
   246    369    367 1
   247    371    370 1
   248    372    370 1
   249    374    373 1
   250    375    373 1
   251    377    376 1
   252    378    376 1
   253    380    379 1
   254    381    379 1
   255    383    382 1
   256    384    382 1
   257    386    385 1
   258    387    385 1
   259    389    388 1
   260    390    388 1
   261    392    391 1
   262    393    391 1
   263    395    394 1
   264    396    394 1
   265    398    397 1
   266    399    397 1
   267    401    400 1
   268    402    400 1
   269    404    403 1
   270    405    403 1
   271    407    406 1
   272    408    406 1
   273    410    409 1
   274    411    409 1
   275    413    412 1
   276    414    412 1
   277    416    415 1
   278    417    415 1
   279    419    418 1
   280    420    418 1
   281    422    421 1
   282    423    421 1
   283    425    424 1
   284    426    424 1
   285    428    427 1
   286    429    427 1
   287    431    430 1
   288    432    430 1
   289    434    433 1
   290    435    433 1
   291    437    436 1
   292    438    436 1
   293    440    439 1
   294    441    439 1
   295    443    442 1
   296    444    442 1
   297    446    445 1
   298    447    445 1
   299    449    448 1
   300    450    448 1
   301    452    451 1
   302    453    451 1
   303    455    454 1
   304    456    454 1
   305    458    457 1
   306    459    457 1
   307    461    460 1
   308    462    460 1
   309    464    463 1
   310    465    463 1
   311    467    466 1
   312    468    466 1
   313    470    469 1
   314    471    469 1
   315    473    472 1
   316    474    472 1
   317    476    475 1
   318    477    475 1
   319    479    478 1
   320    480    478 1
   321    482    481 1
   322    483    481 1
   323    485    484 1
   324    486    484 1
   325    488    487 1
   326    489    487 1
   327    491    490 1
   328    492    490 1
   329    494    493 1
   330    495    493 1
   331    497    496 1
   332    498    496 1
   333    500    499 1
   334    501    499 1
   335    503    502 1
   336    504    502 1
   337    506    505 1
   338    507    505 1
   339    509    508 1
   340    510    508 1
   341    512    511 1
   342    513    511 1
   343    515    514 1
   344    516    514 1
   345    518    517 1
   346    519    517 1
   347    521    520 1
   348    522    520 1
   349    524    523 1
   350    525    523 1
   351    527    526 1
   352    528    526 1
   353    530    529 1
   354    531    529 1
   355    533    532 1
   356    534    532 1
   357    536    535 1
   358    537    535 1
   359    539    538 1
   360    540    538 1
   361    542    541 1
   362    543    541 1
   363    545    544 1
   364    546    544 1
   365    548    547 1
   366    549    547 1
   367    551    550 1
   368    552    550 1
   369    554    553 1
   370    555    553 1
   371    557    556 1
   372    558    556 1
   373    560    559 1
   374    561    559 1
   375    563    562 1
   376    564    562 1
   377    566    565 1
   378    567    565 1
   379    569    568 1
   380    570    568 1
   381    572    571 1
   382    573    571 1
   383    575    574 1
   384    576    574 1
   385    578    577 1
   386    579    577 1
   387    581    580 1
   388    582    580 1
   389    584    583 1
   390    585    583 1
   391    587    586 1
   392    588    586 1
   393    590    589 1
   394    591    589 1
   395    593    592 1
   396    594    592 1
   397    596    595 1
   398    597    595 1
   399    599    598 1
   400    600    598 1
   401    602    601 1
   402    603    601 1
   403    605    604 1
   404    606    604 1
   405    608    607 1
   406    609    607 1
   407    611    610 1
   408    612    610 1
   409    614    613 1
   410    615    613 1
   411    617    616 1
   412    618    616 1
   413    620    619 1
   414    621    619 1
   415    623    622 1
   416    624    622 1
   417    626    625 1
   418    627    625 1
   419    629    628 1
   420    630    628 1
   421    632    631 1
   422    633    631 1
   423    635    634 1
   424    636    634 1
   425    638    637 1
   426    639    637 1
   427    641    640 1
   428    642    640 1
   429    644    643 1
   430    645    643 1
   431    647    646 1
   432    648    646 1
   433    650    649 1
   434    651    649 1
   435    653    652 1
   436    654    652 1
   437    656    655 1
   438    657    655 1
   439    659    658 1
   440    660    658 1
   441    662    661 1
   442    663    661 1
   443    665    664 1
   444    666    664 1
   445    668    667 1
   446    669    667 1
   447    671    670 1
   448    672    670 1
   449    674    673 1
   450    675    673 1
   451    677    676 1
   452    678    676 1
   453    680    679 1
   454    681    679 1
   455    683    682 1
   456    684    682 1
   457    686    685 1
   458    687    685 1
   459    689    688 1
   460    690    688 1
   461    692    691 1
   462    693    691 1
   463    695    694 1
   464    696    694 1
   465    698    697 1
   466    699    697 1
   467    701    700 1
   468    702    700 1
   469    704    703 1
   470    705    703 1
   471    707    706 1
   472    708    706 1
   473    710    709 1
   474    711    709 1
   475    713    712 1
   476    714    712 1
   477    716    715 1
   478    717    715 1
   479    719    718 1
   480    720    718 1
   481    722    721 1
   482    723    721 1
   483    725    724 1
   484    726    724 1
   485    728    727 1
   486    729    727 1
   487    731    730 1
   488    732    730 1
   489    734    733 1
   490    735    733 1
   491    737    736 1
   492    738    736 1
   493    740    739 1
   494    741    739 1
   495    743    742 1
   496    744    742 1
   497    746    745 1
   498    747    745 1
   499    749    748 1
   500    750    748 1
   501    752    751 1
   502    753    751 1
   503    755    754 1
   504    756    754 1
   505    758    757 1
   506    759    757 1
   507    761    760 1
   508    762    760 1
   509    764    763 1
   510    765    763 1
   511    767    766 1
   512    768    766 1
   513    770    769 1
   514    771    769 1
   515    773    772 1
   516    774    772 1
   517    776    775 1
   518    777    775 1
   519    779    778 1
   520    780    778 1
   521    782    781 1
   522    783    781 1
   523    785    784 1
   524    786    784 1
   525    788    787 1
   526    789    787 1
   527    791    790 1
   528    792    790 1
   529    794    793 1
   530    795    793 1
   531    797    796 1
   532    798    796 1
   533    800    799 1
   534    801    799 1
   535    803    802 1
   536    804    802 1
   537    806    805 1
   538    807    805 1
   539    809    808 1
   540    810    808 1
   541    812    811 1
   542    813    811 1
   543    815    814 1
   544    816    814 1
   545    818    817 1
   546    819    817 1
   547    821    820 1
   548    822    820 1
   549    824    823 1
   550    825    823 1
   551    827    826 1
   552    828    826 1
   553    830    829 1
   554    831    829 1
   555    833    832 1
   556    834    832 1
   557    836    835 1
   558    837    835 1
   559    839    838 1
   560    840    838 1
   561    842    841 1
   562    843    841 1
   563    845    844 1
   564    846    844 1
   565    848    847 1
   566    849    847 1
   567    851    850 1
   568    852    850 1
   569    854    853 1
   570    855    853 1
   571    857    856 1
   572    858    856 1
   573    860    859 1
   574    861    859 1
   575    863    862 1
   576    864    862 1
   577    866    865 1
   578    867    865 1
   579    869    868 1
   580    870    868 1
   581    872    871 1
   582    873    871 1
   583    875    874 1
   584    876    874 1
   585    878    877 1
   586    879    877 1
   587    881    880 1
   588    882    880 1
   589    884    883 1
   590    885    883 1
   591    887    886 1
   592    888    886 1
   593    890    889 1
   594    891    889 1
   595    893    892 1
   596    894    892 1
   597    896    895 1
   598    897    895 1
   599    899    898 1
   600    900    898 1
   601    902    901 1
   602    903    901 1
   603    905    904 1
   604    906    904 1
   605    908    907 1
   606    909    907 1
   607    911    910 1
   608    912    910 1
   609    914    913 1
   610    915    913 1
   611    917    916 1
   612    918    916 1
   613    920    919 1
   614    921    919 1
   615    923    922 1
   616    924    922 1
   617    926    925 1
   618    927    925 1
   619    929    928 1
   620    930    928 1
   621    932    931 1
   622    933    931 1
   623    935    934 1
   624    936    934 1
   625    938    937 1
   626    939    937 1
   627    941    940 1
   628    942    940 1
   629    944    943 1
   630    945    943 1
   631    947    946 1
   632    948    946 1
   633    950    949 1
   634    951    949 1
   635    953    952 1
   636    954    952 1
   637    956    955 1
   638    957    955 1
   639    959    958 1
   640    960    958 1
   641    962    961 1
   642    963    961 1
   643    965    964 1
   644    966    964 1
   645    968    967 1
   646    969    967 1
   647    971    970 1
   648    972    970 1
   649    974    973 1
   650    975    973 1
   651    977    976 1
   652    978    976 1
   653    980    979 1
   654    981    979 1
   655    983    982 1
   656    984    982 1
   657    986    985 1
   658    987    985 1
   659    989    988 1
   660    990    988 1
   661    992    991 1
   662    993    991 1
   663    995    994 1
   664    996    994 1
   665    998    997 1
   666    999    997 1
   667   1001   1000 1
   668   1002   1000 1
   669   1004   1003 1
   670   1005   1003 1
   671   1007   1006 1
   672   1008   1006 1
   673   1010   1009 1
   674   1011   1009 1
   675   1013   1012 1
   676   1014   1012 1
   677   1016   1015 1
   678   1017   1015 1
   679   1019   1018 1
   680   1020   1018 1
   681   1022   1021 1
   682   1023   1021 1
   683   1025   1024 1
   684   1026   1024 1
   685   1028   1027 1
   686   1029   1027 1
   687   1031   1030 1
   688   1032   1030 1
   689   1034   1033 1
   690   1035   1033 1
   691   1037   1036 1
   692   1038   1036 1
   693   1040   1039 1
   694   1041   1039 1
   695   1043   1042 1
   696   1044   1042 1
   697   1046   1045 1
   698   1047   1045 1
   699   1049   1048 1
   700   1050   1048 1
   701   1052   1051 1
   702   1053   1051 1
   703   1055   1054 1
   704   1056   1054 1
   705   1058   1057 1
   706   1059   1057 1
   707   1061   1060 1
   708   1062   1060 1
   709   1064   1063 1
   710   1065   1063 1
   711   1067   1066 1
   712   1068   1066 1
   713   1070   1069 1
   714   1071   1069 1
   715   1073   1072 1
   716   1074   1072 1
   717   1076   1075 1
   718   1077   1075 1
   719   1079   1078 1
   720   1080   1078 1
   721   1082   1081 1
   722   1083   1081 1
   723   1085   1084 1
   724   1086   1084 1
   725   1088   1087 1
   726   1089   1087 1
   727   1091   1090 1
   728   1092   1090 1
   729   1094   1093 1
   730   1095   1093 1
   731   1097   1096 1
   732   1098   1096 1
   733   1100   1099 1
   734   1101   1099 1
   735   1103   1102 1
   736   1104   1102 1
   737   1106   1105 1
   738   1107   1105 1
   739   1109   1108 1
   740   1110   1108 1
   741   1112   1111 1
   742   1113   1111 1
   743   1115   1114 1
   744   1116   1114 1
   745   1118   1117 1
   746   1119   1117 1
   747   1121   1120 1
   748   1122   1120 1
   749   1124   1123 1
   750   1125   1123 1
   751   1127   1126 1
   752   1128   1126 1
   753   1130   1129 1
   754   1131   1129 1
   755   1133   1132 1
   756   1134   1132 1
   757   1136   1135 1
   758   1137   1135 1
   759   1139   1138 1
   760   1140   1138 1
   761   1142   1141 1
   762   1143   1141 1
   763   1145   1144 1
   764   1146   1144 1
   765   1148   1147 1
   766   1149   1147 1
   767   1151   1150 1
   768   1152   1150 1
   769   1154   1153 1
   770   1155   1153 1
   771   1157   1156 1
   772   1158   1156 1
   773   1160   1159 1
   774   1161   1159 1
   775   1163   1162 1
   776   1164   1162 1
   777   1166   1165 1
   778   1167   1165 1
   779   1169   1168 1
   780   1170   1168 1
   781   1172   1171 1
   782   1173   1171 1
   783   1175   1174 1
   784   1176   1174 1
   785   1178   1177 1
   786   1179   1177 1
   787   1181   1180 1
   788   1182   1180 1
   789   1184   1183 1
   790   1185   1183 1
   791   1187   1186 1
   792   1188   1186 1
   793   1190   1189 1
   794   1191   1189 1
   795   1193   1192 1
   796   1194   1192 1
   797   1196   1195 1
   798   1197   1195 1
   799   1199   1198 1
   800   1200   1198 1
   801   1202   1201 1
   802   1203   1201 1
   803   1205   1204 1
   804   1206   1204 1
   805   1208   1207 1
   806   1209   1207 1
   807   1211   1210 1
   808   1212   1210 1
   809   1214   1213 1
   810   1215   1213 1
   811   1217   1216 1
   812   1218   1216 1
   813   1220   1219 1
   814   1221   1219 1
   815   1223   1222 1
   816   1224   1222 1
   817   1226   1225 1
   818   1227   1225 1
   819   1229   1228 1
   820   1230   1228 1
   821   1232   1231 1
   822   1233   1231 1
   823   1235   1234 1
   824   1236   1234 1
   825   1238   1237 1
   826   1239   1237 1
   827   1241   1240 1
   828   1242   1240 1
   829   1244   1243 1
   830   1245   1243 1
   831   1247   1246 1
   832   1248   1246 1
   833   1250   1249 1
   834   1251   1249 1
   835   1253   1252 1
   836   1254   1252 1
   837   1256   1255 1
   838   1257   1255 1
   839   1259   1258 1
   840   1260   1258 1
   841   1262   1261 1
   842   1263   1261 1
   843   1265   1264 1
   844   1266   1264 1
   845   1268   1267 1
   846   1269   1267 1
   847   1271   1270 1
   848   1272   1270 1
   849   1274   1273 1
   850   1275   1273 1
   851   1277   1276 1
   852   1278   1276 1
   853   1280   1279 1
   854   1281   1279 1
   855   1283   1282 1
   856   1284   1282 1
   857   1286   1285 1
   858   1287   1285 1
   859   1289   1288 1
   860   1290   1288 1
   861   1292   1291 1
   862   1293   1291 1
   863   1295   1294 1
   864   1296   1294 1
   865   1298   1297 1
   866   1299   1297 1
   867   1301   1300 1
   868   1302   1300 1
   869   1304   1303 1
   870   1305   1303 1
   871   1307   1306 1
   872   1308   1306 1
   873   1310   1309 1
   874   1311   1309 1
   875   1313   1312 1
   876   1314   1312 1
   877   1316   1315 1
   878   1317   1315 1
   879   1319   1318 1
   880   1320   1318 1
   881   1322   1321 1
   882   1323   1321 1
   883   1325   1324 1
   884   1326   1324 1
   885   1328   1327 1
   886   1329   1327 1
   887   1331   1330 1
   888   1332   1330 1
   889   1334   1333 1
   890   1335   1333 1
   891   1337   1336 1
   892   1338   1336 1
   893   1340   1339 1
   894   1341   1339 1
   895   1343   1342 1
   896   1344   1342 1
   897   1346   1345 1
   898   1347   1345 1
   899   1349   1348 1
   900   1350   1348 1
   901   1352   1351 1
   902   1353   1351 1
   903   1355   1354 1
   904   1356   1354 1
   905   1358   1357 1
   906   1359   1357 1
   907   1361   1360 1
   908   1362   1360 1
   909   1364   1363 1
   910   1365   1363 1
   911   1367   1366 1
   912   1368   1366 1
   913   1370   1369 1
   914   1371   1369 1
   915   1373   1372 1
   916   1374   1372 1
   917   1376   1375 1
   918   1377   1375 1
   919   1379   1378 1
   920   1380   1378 1
   921   1382   1381 1
   922   1383   1381 1
   923   1385   1384 1
   924   1386   1384 1
   925   1388   1387 1
   926   1389   1387 1
   927   1391   1390 1
   928   1392   1390 1
   929   1394   1393 1
   930   1395   1393 1
   931   1397   1396 1
   932   1398   1396 1
   933   1400   1399 1
   934   1401   1399 1
   935   1403   1402 1
   936   1404   1402 1
   937   1406   1405 1
   938   1407   1405 1
   939   1409   1408 1
   940   1410   1408 1
   941   1412   1411 1
   942   1413   1411 1
   943   1415   1414 1
   944   1416   1414 1
   945   1418   1417 1
   946   1419   1417 1
   947   1421   1420 1
   948   1422   1420 1
   949   1424   1423 1
   950   1425   1423 1
   951   1427   1426 1
   952   1428   1426 1
   953   1430   1429 1
   954   1431   1429 1
   955   1433   1432 1
   956   1434   1432 1
   957   1436   1435 1
   958   1437   1435 1
   959   1439   1438 1
   960   1440   1438 1
   961   1442   1441 1
   962   1443   1441 1
   963   1445   1444 1
   964   1446   1444 1
   965   1448   1447 1
   966   1449   1447 1
   967   1451   1450 1
   968   1452   1450 1
   969   1454   1453 1
   970   1455   1453 1
   971   1457   1456 1
   972   1458   1456 1
   973   1460   1459 1
   974   1461   1459 1
   975   1463   1462 1
   976   1464   1462 1
   977   1466   1465 1
   978   1467   1465 1
   979   1469   1468 1
   980   1470   1468 1
   981   1472   1471 1
   982   1473   1471 1
   983   1475   1474 1
   984   1476   1474 1
   985   1478   1477 1
   986   1479   1477 1
   987   1481   1480 1
   988   1482   1480 1
   989   1484   1483 1
   990   1485   1483 1
   991   1487   1486 1
   992   1488   1486 1
   993   1490   1489 1
   994   1491   1489 1
   995   1493   1492 1
   996   1494   1492 1
   997   1496   1495 1
   998   1497   1495 1
   999   1499   1498 1
  1000   1500   1498 1
  1001   1502   1501 1
  1002   1503   1501 1
  1003   1505   1504 1
  1004   1506   1504 1
  1005   1508   1507 1
  1006   1509   1507 1
  1007   1511   1510 1
  1008   1512   1510 1
  1009   1514   1513 1
  1010   1515   1513 1
  1011   1517   1516 1
  1012   1518   1516 1
  1013   1520   1519 1
  1014   1521   1519 1
  1015   1523   1522 1
  1016   1524   1522 1
  1017   1526   1525 1
  1018   1527   1525 1
  1019   1529   1528 1
  1020   1530   1528 1
  1021   1532   1531 1
  1022   1533   1531 1
  1023   1535   1534 1
  1024   1536   1534 1
  1025   1538   1537 1
  1026   1539   1537 1
  1027   1541   1540 1
  1028   1542   1540 1
  1029   1544   1543 1
  1030   1545   1543 1
  1031   1547   1546 1
  1032   1548   1546 1
  1033   1550   1549 1
  1034   1551   1549 1
  1035   1553   1552 1
  1036   1554   1552 1
  1037   1556   1555 1
  1038   1557   1555 1
  1039   1559   1558 1
  1040   1560   1558 1
  1041   1562   1561 1
  1042   1563   1561 1
  1043   1565   1564 1
  1044   1566   1564 1
  1045   1568   1567 1
  1046   1569   1567 1
  1047   1571   1570 1
  1048   1572   1570 1
  1049   1574   1573 1
  1050   1575   1573 1
  1051   1577   1576 1
  1052   1578   1576 1
  1053   1580   1579 1
  1054   1581   1579 1
  1055   1583   1582 1
  1056   1584   1582 1
  1057   1586   1585 1
  1058   1587   1585 1
  1059   1589   1588 1
  1060   1590   1588 1
  1061   1592   1591 1
  1062   1593   1591 1
  1063   1595   1594 1
  1064   1596   1594 1
  1065   1598   1597 1
  1066   1599   1597 1
  1067   1601   1600 1
  1068   1602   1600 1
  1069   1604   1603 1
  1070   1605   1603 1
  1071   1607   1606 1
  1072   1608   1606 1
  1073   1610   1609 1
  1074   1611   1609 1
  1075   1613   1612 1
  1076   1614   1612 1
  1077   1616   1615 1
  1078   1617   1615 1
  1079   1619   1618 1
  1080   1620   1618 1
  1081   1622   1621 1
  1082   1623   1621 1
  1083   1625   1624 1
  1084   1626   1624 1
  1085   1628   1627 1
  1086   1629   1627 1
  1087   1631   1630 1
  1088   1632   1630 1
  1089   1634   1633 1
  1090   1635   1633 1
  1091   1637   1636 1
  1092   1638   1636 1
  1093   1640   1639 1
  1094   1641   1639 1
  1095   1643   1642 1
  1096   1644   1642 1
  1097   1646   1645 1
  1098   1647   1645 1
  1099   1649   1648 1
  1100   1650   1648 1
  1101   1652   1651 1
  1102   1653   1651 1
  1103   1655   1654 1
  1104   1656   1654 1
  1105   1658   1657 1
  1106   1659   1657 1
  1107   1661   1660 1
  1108   1662   1660 1
  1109   1664   1663 1
  1110   1665   1663 1
  1111   1667   1666 1
  1112   1668   1666 1
  1113   1670   1669 1
  1114   1671   1669 1
  1115   1673   1672 1
  1116   1674   1672 1
  1117   1676   1675 1
  1118   1677   1675 1
  1119   1679   1678 1
  1120   1680   1678 1
  1121   1682   1681 1
  1122   1683   1681 1
  1123   1685   1684 1
  1124   1686   1684 1
  1125   1688   1687 1
  1126   1689   1687 1
  1127   1691   1690 1
  1128   1692   1690 1
  1129   1694   1693 1
  1130   1695   1693 1
  1131   1697   1696 1
  1132   1698   1696 1
  1133   1700   1699 1
  1134   1701   1699 1
  1135   1703   1702 1
  1136   1704   1702 1
  1137   1706   1705 1
  1138   1707   1705 1
  1139   1709   1708 1
  1140   1710   1708 1
  1141   1712   1711 1
  1142   1713   1711 1
  1143   1715   1714 1
  1144   1716   1714 1
  1145   1718   1717 1
  1146   1719   1717 1
  1147   1721   1720 1
  1148   1722   1720 1
  1149   1724   1723 1
  1150   1725   1723 1
  1151   1727   1726 1
  1152   1728   1726 1
  1153   1730   1729 1
  1154   1731   1729 1
  1155   1733   1732 1
  1156   1734   1732 1
  1157   1736   1735 1
  1158   1737   1735 1
  1159   1739   1738 1
  1160   1740   1738 1
  1161   1742   1741 1
  1162   1743   1741 1
  1163   1745   1744 1
  1164   1746   1744 1
  1165   1748   1747 1
  1166   1749   1747 1
  1167   1751   1750 1
  1168   1752   1750 1
  1169   1754   1753 1
  1170   1755   1753 1
  1171   1757   1756 1
  1172   1758   1756 1
  1173   1760   1759 1
  1174   1761   1759 1
  1175   1763   1762 1
  1176   1764   1762 1
  1177   1766   1765 1
  1178   1767   1765 1
  1179   1769   1768 1
  1180   1770   1768 1
  1181   1772   1771 1
  1182   1773   1771 1
  1183   1775   1774 1
  1184   1776   1774 1
  1185   1778   1777 1
  1186   1779   1777 1
  1187   1781   1780 1
  1188   1782   1780 1
  1189   1784   1783 1
  1190   1785   1783 1
  1191   1787   1786 1
  1192   1788   1786 1
  1193   1790   1789 1
  1194   1791   1789 1
  1195   1793   1792 1
  1196   1794   1792 1
  1197   1796   1795 1
  1198   1797   1795 1
  1199   1799   1798 1
  1200   1800   1798 1
  1201   1802   1801 1
  1202   1803   1801 1
  1203   1805   1804 1
  1204   1806   1804 1
  1205   1808   1807 1
  1206   1809   1807 1
  1207   1811   1810 1
  1208   1812   1810 1
  1209   1814   1813 1
  1210   1815   1813 1
  1211   1817   1816 1
  1212   1818   1816 1
  1213   1820   1819 1
  1214   1821   1819 1
  1215   1823   1822 1
  1216   1824   1822 1
  1217   1826   1825 1
  1218   1827   1825 1
  1219   1829   1828 1
  1220   1830   1828 1
  1221   1832   1831 1
  1222   1833   1831 1
  1223   1835   1834 1
  1224   1836   1834 1
  1225   1838   1837 1
  1226   1839   1837 1
  1227   1841   1840 1
  1228   1842   1840 1
  1229   1844   1843 1
  1230   1845   1843 1
  1231   1847   1846 1
  1232   1848   1846 1
  1233   1850   1849 1
  1234   1851   1849 1
  1235   1853   1852 1
  1236   1854   1852 1
  1237   1856   1855 1
  1238   1857   1855 1
  1239   1859   1858 1
  1240   1860   1858 1
  1241   1862   1861 1
  1242   1863   1861 1
  1243   1865   1864 1
  1244   1866   1864 1
  1245   1868   1867 1
  1246   1869   1867 1
  1247   1871   1870 1
  1248   1872   1870 1
  1249   1874   1873 1
  1250   1875   1873 1
  1251   1877   1876 1
  1252   1878   1876 1
  1253   1880   1879 1
  1254   1881   1879 1
  1255   1883   1882 1
  1256   1884   1882 1
  1257   1886   1885 1
  1258   1887   1885 1
  1259   1889   1888 1
  1260   1890   1888 1
  1261   1892   1891 1
  1262   1893   1891 1
  1263   1895   1894 1
  1264   1896   1894 1
  1265   1898   1897 1
  1266   1899   1897 1
  1267   1901   1900 1
  1268   1902   1900 1
  1269   1904   1903 1
  1270   1905   1903 1
  1271   1907   1906 1
  1272   1908   1906 1
  1273   1910   1909 1
  1274   1911   1909 1
  1275   1913   1912 1
  1276   1914   1912 1
  1277   1916   1915 1
  1278   1917   1915 1
  1279   1919   1918 1
  1280   1920   1918 1
  1281   1922   1921 1
  1282   1923   1921 1
  1283   1925   1924 1
  1284   1926   1924 1
  1285   1928   1927 1
  1286   1929   1927 1
  1287   1931   1930 1
  1288   1932   1930 1
  1289   1934   1933 1
  1290   1935   1933 1
  1291   1937   1936 1
  1292   1938   1936 1
  1293   1940   1939 1
  1294   1941   1939 1
  1295   1943   1942 1
  1296   1944   1942 1
  1297   1946   1945 1
  1298   1947   1945 1
  1299   1949   1948 1
  1300   1950   1948 1
  1301   1952   1951 1
  1302   1953   1951 1
  1303   1955   1954 1
  1304   1956   1954 1
  1305   1958   1957 1
  1306   1959   1957 1
  1307   1961   1960 1
  1308   1962   1960 1
  1309   1964   1963 1
  1310   1965   1963 1
  1311   1967   1966 1
  1312   1968   1966 1
  1313   1970   1969 1
  1314   1971   1969 1
  1315   1973   1972 1
  1316   1974   1972 1
  1317   1976   1975 1
  1318   1977   1975 1
  1319   1979   1978 1
  1320   1980   1978 1
  1321   1982   1981 1
  1322   1983   1981 1
  1323   1985   1984 1
  1324   1986   1984 1
  1325   1988   1987 1
  1326   1989   1987 1
  1327   1991   1990 1
  1328   1992   1990 1
  1329   1994   1993 1
  1330   1995   1993 1
  1331   1997   1996 1
  1332   1998   1996 1
  1333   2000   1999 1
  1334   2001   1999 1
  1335   2003   2002 1
  1336   2004   2002 1
  1337   2006   2005 1
  1338   2007   2005 1
  1339   2009   2008 1
  1340   2010   2008 1
  1341   2012   2011 1
  1342   2013   2011 1
  1343   2015   2014 1
  1344   2016   2014 1
  1345   2018   2017 1
  1346   2019   2017 1
  1347   2021   2020 1
  1348   2022   2020 1
  1349   2024   2023 1
  1350   2025   2023 1
  1351   2027   2026 1
  1352   2028   2026 1
  1353   2030   2029 1
  1354   2031   2029 1
  1355   2033   2032 1
  1356   2034   2032 1
  1357   2036   2035 1
  1358   2037   2035 1
  1359   2039   2038 1
  1360   2040   2038 1
  1361   2042   2041 1
  1362   2043   2041 1
  1363   2045   2044 1
  1364   2046   2044 1
  1365   2048   2047 1
  1366   2049   2047 1
  1367   2051   2050 1
  1368   2052   2050 1
  1369   2054   2053 1
  1370   2055   2053 1
  1371   2057   2056 1
  1372   2058   2056 1
  1373   2060   2059 1
  1374   2061   2059 1
  1375   2063   2062 1
  1376   2064   2062 1
  1377   2066   2065 1
  1378   2067   2065 1
  1379   2069   2068 1
  1380   2070   2068 1
  1381   2072   2071 1
  1382   2073   2071 1
  1383   2075   2074 1
  1384   2076   2074 1
  1385   2078   2077 1
  1386   2079   2077 1
  1387   2081   2080 1
  1388   2082   2080 1
  1389   2084   2083 1
  1390   2085   2083 1
  1391   2087   2086 1
  1392   2088   2086 1
  1393   2090   2089 1
  1394   2091   2089 1
  1395   2093   2092 1
  1396   2094   2092 1
  1397   2096   2095 1
  1398   2097   2095 1
  1399   2099   2098 1
  1400   2100   2098 1
  1401   2102   2101 1
  1402   2103   2101 1
  1403   2105   2104 1
  1404   2106   2104 1
  1405   2108   2107 1
  1406   2109   2107 1
  1407   2111   2110 1
  1408   2112   2110 1
  1409   2114   2113 1
  1410   2115   2113 1
  1411   2117   2116 1
  1412   2118   2116 1
  1413   2120   2119 1
  1414   2121   2119 1
  1415   2123   2122 1
  1416   2124   2122 1
  1417   2126   2125 1
  1418   2127   2125 1
  1419   2129   2128 1
  1420   2130   2128 1
  1421   2132   2131 1
  1422   2133   2131 1
  1423   2135   2134 1
  1424   2136   2134 1
  1425   2138   2137 1
  1426   2139   2137 1
  1427   2141   2140 1
  1428   2142   2140 1
  1429   2144   2143 1
  1430   2145   2143 1
  1431   2147   2146 1
  1432   2148   2146 1
  1433   2150   2149 1
  1434   2151   2149 1
  1435   2153   2152 1
  1436   2154   2152 1
  1437   2156   2155 1
  1438   2157   2155 1
  1439   2159   2158 1
  1440   2160   2158 1
  1441   2162   2161 1
  1442   2163   2161 1
  1443   2165   2164 1
  1444   2166   2164 1
  1445   2168   2167 1
  1446   2169   2167 1
  1447   2171   2170 1
  1448   2172   2170 1
  1449   2174   2173 1
  1450   2175   2173 1
  1451   2177   2176 1
  1452   2178   2176 1
  1453   2180   2179 1
  1454   2181   2179 1
  1455   2183   2182 1
  1456   2184   2182 1
  1457   2186   2185 1
  1458   2187   2185 1
  1459   2189   2188 1
  1460   2190   2188 1
  1461   2192   2191 1
  1462   2193   2191 1
  1463   2195   2194 1
  1464   2196   2194 1
  1465   2198   2197 1
  1466   2199   2197 1

@<TRIPOS>CRYSIN
28.000 28.000 28.000 90.0 90.0 90.0  1  1
